version 2
run General-0-20181126-16:16:01-30800
attr configname General
attr datetime 20181126-16:16:01
attr experiment General
attr inifile omnetpp.ini
attr iterationvars ""
attr iterationvarsf ""
attr measurement ""
attr network LuSTScenario
attr processid 30800
attr repetition 0
attr replication #0
attr resultdir results
attr runnumber 0
attr seedset 0
param **.debug false
param **.coreDebug false
param *.playgroundSizeX 15000m
param *.playgroundSizeY 15000m
param *.playgroundSizeZ 50m
param *.annotations.draw true
param *.obstacles.debug false
param *.obstacles.obstacles "xmldoc(\"config.xml\", \"//AnalogueModel[@type='SimpleObstacleShadowing']/obstacles\")"
param *.manager.updateInterval 1s
param *.manager.host "\"localhost\""
param *.manager.port 9999
param *.manager.autoShutdown true
param *.manager.launchConfig "xmldoc(\"lust.launchd.xml\")"
param *.rsu[0].mobility.x 1538
param *.rsu[0].mobility.y 945
param *.rsu[0].mobility.z 3
param *.rsu[*].applType "\"TraCIDemoRSU11p\""
param *.rsu[*].appl.headerLength "80 bit"
param *.rsu[*].appl.sendBeacons false
param *.rsu[*].appl.dataOnSch false
param *.rsu[*].appl.beaconInterval 1s
param *.rsu[*].appl.beaconUserPriority 7
param *.rsu[*].appl.dataUserPriority 5
param *.connectionManager.sendDirect true
param *.connectionManager.maxInterfDist 2600m
param *.connectionManager.drawMaxIntfDist false
param *.**.nic.mac1609_4.useServiceChannel false
param *.**.nic.mac1609_4.txPower 20mW
param *.**.nic.mac1609_4.bitrate 6Mbps
param *.**.nic.phy80211p.sensitivity -89dBm
param *.**.nic.phy80211p.useThermalNoise true
param *.**.nic.phy80211p.thermalNoise -110dBm
param *.**.nic.phy80211p.decider "xmldoc(\"config.xml\")"
param *.**.nic.phy80211p.analogueModels "xmldoc(\"config.xml\")"
param *.**.nic.phy80211p.usePropagationDelay true
param *.**.nic.phy80211p.antenna "xmldoc(\"antenna.xml\", \"/root/Antenna[@id='monopole']\")"
param *.node[*].applType "\"JosephVeinsApp\""
param *.node[*].appl.headerLength "80 bit"
param *.node[*].appl.sendBeacons true
param *.node[*].appl.dataOnSch false
param *.node[*].appl.beaconInterval 1s
param *.node[*].veinsmobilityType.debug true
param *.node[*].veinsmobility.x 0
param *.node[*].veinsmobility.y 0
param *.node[*].veinsmobility.z 1.895

vector 0 LuSTScenario.node[0].veinsmobility posx ETV
vector 1 LuSTScenario.node[0].veinsmobility posy ETV
vector 2 LuSTScenario.node[1].veinsmobility posx ETV
vector 3 LuSTScenario.node[1].veinsmobility posy ETV
vector 4 LuSTScenario.node[0].veinsmobility speed ETV
vector 5 LuSTScenario.node[1].veinsmobility speed ETV
vector 6 LuSTScenario.node[2].veinsmobility posx ETV
vector 7 LuSTScenario.node[2].veinsmobility posy ETV
vector 8 LuSTScenario.node[3].veinsmobility posx ETV
vector 9 LuSTScenario.node[3].veinsmobility posy ETV
vector 10 LuSTScenario.node[0].veinsmobility acceleration ETV
vector 11 LuSTScenario.node[0].veinsmobility co2emission ETV
vector 12 LuSTScenario.node[1].veinsmobility acceleration ETV
vector 13 LuSTScenario.node[1].veinsmobility co2emission ETV
vector 14 LuSTScenario.node[2].veinsmobility speed ETV
vector 15 LuSTScenario.node[3].veinsmobility speed ETV
vector 16 LuSTScenario.node[2].veinsmobility acceleration ETV
vector 17 LuSTScenario.node[2].veinsmobility co2emission ETV
vector 18 LuSTScenario.node[3].veinsmobility acceleration ETV
vector 19 LuSTScenario.node[3].veinsmobility co2emission ETV
vector 20 LuSTScenario.node[4].veinsmobility posx ETV
vector 21 LuSTScenario.node[4].veinsmobility posy ETV
vector 22 LuSTScenario.node[4].veinsmobility speed ETV
vector 23 LuSTScenario.node[4].veinsmobility acceleration ETV
vector 24 LuSTScenario.node[4].veinsmobility co2emission ETV
vector 25 LuSTScenario.node[5].veinsmobility posx ETV
vector 26 LuSTScenario.node[5].veinsmobility posy ETV
vector 27 LuSTScenario.node[5].veinsmobility speed ETV
vector 28 LuSTScenario.node[5].veinsmobility acceleration ETV
vector 29 LuSTScenario.node[5].veinsmobility co2emission ETV
vector 30 LuSTScenario.node[6].veinsmobility posx ETV
vector 31 LuSTScenario.node[6].veinsmobility posy ETV
vector 32 LuSTScenario.node[7].veinsmobility posx ETV
vector 33 LuSTScenario.node[7].veinsmobility posy ETV
vector 34 LuSTScenario.node[6].veinsmobility speed ETV
vector 35 LuSTScenario.node[8].veinsmobility posx ETV
vector 36 LuSTScenario.node[8].veinsmobility posy ETV
vector 37 LuSTScenario.node[6].veinsmobility acceleration ETV
vector 38 LuSTScenario.node[6].veinsmobility co2emission ETV
vector 39 LuSTScenario.node[7].veinsmobility speed ETV
vector 40 LuSTScenario.node[9].veinsmobility posx ETV
vector 41 LuSTScenario.node[9].veinsmobility posy ETV
vector 42 LuSTScenario.node[10].veinsmobility posx ETV
vector 43 LuSTScenario.node[10].veinsmobility posy ETV
vector 44 LuSTScenario.node[7].veinsmobility acceleration ETV
vector 45 LuSTScenario.node[7].veinsmobility co2emission ETV
vector 46 LuSTScenario.node[8].veinsmobility speed ETV
vector 47 LuSTScenario.node[11].veinsmobility posx ETV
vector 48 LuSTScenario.node[11].veinsmobility posy ETV
vector 49 LuSTScenario.node[8].veinsmobility acceleration ETV
vector 50 LuSTScenario.node[8].veinsmobility co2emission ETV
vector 51 LuSTScenario.node[9].veinsmobility speed ETV
vector 52 LuSTScenario.node[10].veinsmobility speed ETV
vector 53 LuSTScenario.node[9].veinsmobility acceleration ETV
vector 54 LuSTScenario.node[9].veinsmobility co2emission ETV
vector 55 LuSTScenario.node[10].veinsmobility acceleration ETV
vector 56 LuSTScenario.node[10].veinsmobility co2emission ETV
vector 57 LuSTScenario.node[11].veinsmobility speed ETV
vector 58 LuSTScenario.node[11].veinsmobility acceleration ETV
vector 59 LuSTScenario.node[11].veinsmobility co2emission ETV
vector 60 LuSTScenario.node[12].veinsmobility posx ETV
vector 61 LuSTScenario.node[12].veinsmobility posy ETV
vector 62 LuSTScenario.node[13].veinsmobility posx ETV
vector 63 LuSTScenario.node[13].veinsmobility posy ETV
vector 64 LuSTScenario.node[12].veinsmobility speed ETV
vector 65 LuSTScenario.node[13].veinsmobility speed ETV
vector 66 LuSTScenario.node[12].veinsmobility acceleration ETV
vector 67 LuSTScenario.node[12].veinsmobility co2emission ETV
vector 68 LuSTScenario.node[13].veinsmobility acceleration ETV
vector 69 LuSTScenario.node[13].veinsmobility co2emission ETV
vector 70 LuSTScenario.node[14].veinsmobility posx ETV
vector 71 LuSTScenario.node[14].veinsmobility posy ETV
vector 72 LuSTScenario.node[14].veinsmobility speed ETV
vector 73 LuSTScenario.node[15].veinsmobility posx ETV
vector 74 LuSTScenario.node[15].veinsmobility posy ETV
vector 75 LuSTScenario.node[14].veinsmobility acceleration ETV
vector 76 LuSTScenario.node[14].veinsmobility co2emission ETV
vector 77 LuSTScenario.node[15].veinsmobility speed ETV
vector 78 LuSTScenario.node[15].veinsmobility acceleration ETV
vector 79 LuSTScenario.node[15].veinsmobility co2emission ETV
24	299	8	5.1734539037525
24	361	9	5.574744291593
24	448	10	6.9491319064673
24	535	11	8.3956393904571
24	622	12	9.4965932986969
24	726	13	2.8943443324323
24	839	14	2.2208762476415
24	973	15	1.8575640561178
24	1161	16	2.2741302658406
24	1394	17	2.2563755692447
24	1627	18	2.1306780334983
24	1860	19	2.0065467607371
24	2093	20	2.2871563445249
24	2326	21	2.2824789939715
24	2559	22	2.1348182078904
24	2850	23	1.8220908125086
24	3141	24	2.4263827848677
24	3432	25	1.8222516918482
24	3723	26	2.2315828468478
24	4043	27	2.0315650339377
24	4363	28	2.5299928095386
24	4704	29	2.2239458859574
24	5045	30	0.973
24	5386	31	0.973
24	5727	32	0.973
24	6068	33	0.973
23	299	8	2.3049481317122
23	361	9	1.9235130839795
23	448	10	2.0332265839353
23	535	11	2.1085447153775
23	622	12	2.0646523745498
23	726	13	0.20624964878374
23	839	14	0.01958693487104
23	973	15	-0.07865422271192
23	1161	16	0.03569317549467
23	1394	17	0.029808803303167
23	1627	18	-0.0047547789523374
23	1860	19	-0.037976305056363
23	2093	20	0.038449918101541
23	2326	21	0.035969769326039
23	2559	22	-0.0045777644729252
23	2850	23	-0.08859116426669
23	3141	24	0.076224890574814
23	3432	25	-0.088249852783047
23	3723	26	0.024538667257875
23	4043	27	-0.030013832501137
23	4363	28	0.10440450792667
23	4704	29	0.019421742544509
23	5045	30	-0.44597363040403
23	5386	31	-4.4299574591415
23	5727	32	-4.4736464592485
23	6068	33	-4.4911947094348
22	237	7	4.3798963562807
22	299	8	6.6848444879929
22	361	9	8.6083575719723
22	448	10	10.641584155908
22	535	11	12.750128871285
22	622	12	14.814781245835
22	726	13	15.021030894619
22	839	14	15.04061782949
22	973	15	14.961963606778
22	1161	16	14.997656782272
22	1394	17	15.027465585576
22	1627	18	15.022710806623
22	1860	19	14.984734501567
22	2093	20	15.023184419668
22	2326	21	15.059154188995
22	2559	22	15.054576424522
22	2850	23	14.965985260255
22	3141	24	15.04221015083
22	3432	25	14.953960298047
22	3723	26	14.978498965305
22	4043	27	14.948485132803
22	4363	28	15.05288964073
22	4704	29	15.072311383275
22	5045	30	14.626337752871
22	5386	31	10.196380293729
22	5727	32	5.7227338344805
22	6068	33	1.2315391250457
21	175	6	3796.7522510255
21	237	7	3796.7522510255
21	299	8	3797.751976233
21	361	9	3799.4423680561
21	448	10	3801.7695305942
21	535	11	3803.2274639097
21	622	12	3804.1373800425
21	726	13	3805.2098110185
21	839	14	3805.7540525463
21	973	15	3804.5968794815
21	1161	16	3803.4380915315
21	1394	17	3807.1708165586
21	1627	18	3796.6737156618
21	1860	19	3789.9243904422
21	2093	20	3787.1953806127
21	2326	21	3785.3161365346
21	2559	22	3779.498847422
21	2850	23	3774.2295000144
21	3141	24	3772.02235922
21	3432	25	3771.1968624258
21	3723	26	3777.7392966052
21	4043	27	3786.3077083481
21	4363	28	3790.0221068323
21	4704	29	3787.2240433712
21	5045	30	3784.6820553834
21	5386	31	3782.1493209794
21	5727	32	3787.580466999
21	6068	33	3790.3371126276
20	175	6	5592.9386599733
20	237	7	5592.9386599733
20	299	8	5589.7616590427
20	361	9	5584.3898065029
20	448	10	5576.9838390645
20	535	11	5567.4159645139
20	622	12	5555.6182162984
20	726	13	5541.7133406989
20	839	14	5526.7340508609
20	973	15	5511.7716194541
20	1161	16	5496.7883073268
20	1394	17	5483.1236113148
20	1627	18	5472.8193138076
20	1860	19	5460.3911093979
20	2093	20	5445.6350464777
20	2326	21	5430.7538779244
20	2559	22	5417.201670386
20	2850	23	5403.2396253785
20	3141	24	5388.4636893378
20	3432	25	5373.5605583128
20	3723	26	5360.3849179724
20	4043	27	5348.0804579
20	4363	28	5334.7725871221
20	4704	29	5320.0268272175
20	5045	30	5305.2320299036
20	5386	31	5290.4910900029
20	5727	32	5279.938415588
20	6068	33	5273.1725104933
vector 80 LuSTScenario.node[16].veinsmobility posx ETV
vector 81 LuSTScenario.node[16].veinsmobility posy ETV
vector 82 LuSTScenario.node[17].veinsmobility posx ETV
vector 83 LuSTScenario.node[17].veinsmobility posy ETV
vector 84 LuSTScenario.node[16].veinsmobility speed ETV
vector 85 LuSTScenario.node[16].veinsmobility acceleration ETV
vector 86 LuSTScenario.node[16].veinsmobility co2emission ETV
vector 87 LuSTScenario.node[17].veinsmobility speed ETV
vector 88 LuSTScenario.node[18].veinsmobility posx ETV
vector 89 LuSTScenario.node[18].veinsmobility posy ETV
vector 90 LuSTScenario.node[19].veinsmobility posx ETV
vector 91 LuSTScenario.node[19].veinsmobility posy ETV
vector 92 LuSTScenario.node[20].veinsmobility posx ETV
vector 93 LuSTScenario.node[20].veinsmobility posy ETV
vector 94 LuSTScenario.node[17].veinsmobility acceleration ETV
vector 95 LuSTScenario.node[17].veinsmobility co2emission ETV
vector 96 LuSTScenario.node[18].veinsmobility speed ETV
vector 97 LuSTScenario.node[19].veinsmobility speed ETV
vector 98 LuSTScenario.node[20].veinsmobility speed ETV
vector 99 LuSTScenario.node[21].veinsmobility posx ETV
vector 100 LuSTScenario.node[21].veinsmobility posy ETV
vector 101 LuSTScenario.node[18].veinsmobility acceleration ETV
vector 102 LuSTScenario.node[18].veinsmobility co2emission ETV
vector 103 LuSTScenario.node[19].veinsmobility acceleration ETV
vector 104 LuSTScenario.node[19].veinsmobility co2emission ETV
vector 105 LuSTScenario.node[20].veinsmobility acceleration ETV
vector 106 LuSTScenario.node[20].veinsmobility co2emission ETV
vector 107 LuSTScenario.node[22].veinsmobility posx ETV
vector 108 LuSTScenario.node[22].veinsmobility posy ETV
vector 109 LuSTScenario.node[21].veinsmobility speed ETV
vector 110 LuSTScenario.node[23].veinsmobility posx ETV
vector 111 LuSTScenario.node[23].veinsmobility posy ETV
vector 112 LuSTScenario.node[21].veinsmobility acceleration ETV
vector 113 LuSTScenario.node[21].veinsmobility co2emission ETV
vector 114 LuSTScenario.node[22].veinsmobility speed ETV
vector 115 LuSTScenario.node[22].veinsmobility acceleration ETV
vector 116 LuSTScenario.node[22].veinsmobility co2emission ETV
vector 117 LuSTScenario.node[23].veinsmobility speed ETV
vector 118 LuSTScenario.node[24].veinsmobility posx ETV
vector 119 LuSTScenario.node[24].veinsmobility posy ETV
vector 120 LuSTScenario.node[23].veinsmobility acceleration ETV
vector 121 LuSTScenario.node[23].veinsmobility co2emission ETV
vector 122 LuSTScenario.node[24].veinsmobility speed ETV
vector 123 LuSTScenario.node[24].veinsmobility acceleration ETV
vector 124 LuSTScenario.node[24].veinsmobility co2emission ETV
vector 125 LuSTScenario.node[25].veinsmobility posx ETV
vector 126 LuSTScenario.node[25].veinsmobility posy ETV
vector 127 LuSTScenario.node[25].veinsmobility speed ETV
vector 128 LuSTScenario.node[25].veinsmobility acceleration ETV
vector 129 LuSTScenario.node[25].veinsmobility co2emission ETV
vector 130 LuSTScenario.node[26].veinsmobility posx ETV
vector 131 LuSTScenario.node[26].veinsmobility posy ETV
vector 132 LuSTScenario.node[27].veinsmobility posx ETV
vector 133 LuSTScenario.node[27].veinsmobility posy ETV
vector 134 LuSTScenario.node[26].veinsmobility speed ETV
vector 135 LuSTScenario.node[27].veinsmobility speed ETV
vector 136 LuSTScenario.node[26].veinsmobility acceleration ETV
vector 137 LuSTScenario.node[26].veinsmobility co2emission ETV
vector 138 LuSTScenario.node[27].veinsmobility acceleration ETV
vector 139 LuSTScenario.node[27].veinsmobility co2emission ETV
vector 140 LuSTScenario.node[28].veinsmobility posx ETV
vector 141 LuSTScenario.node[28].veinsmobility posy ETV
vector 142 LuSTScenario.node[29].veinsmobility posx ETV
vector 143 LuSTScenario.node[29].veinsmobility posy ETV
vector 144 LuSTScenario.node[28].veinsmobility speed ETV
vector 145 LuSTScenario.node[29].veinsmobility speed ETV
vector 146 LuSTScenario.node[28].veinsmobility acceleration ETV
vector 147 LuSTScenario.node[28].veinsmobility co2emission ETV
vector 148 LuSTScenario.node[29].veinsmobility acceleration ETV
vector 149 LuSTScenario.node[29].veinsmobility co2emission ETV
vector 150 LuSTScenario.node[30].veinsmobility posx ETV
vector 151 LuSTScenario.node[30].veinsmobility posy ETV
vector 152 LuSTScenario.node[30].veinsmobility speed ETV
vector 153 LuSTScenario.node[30].veinsmobility acceleration ETV
vector 154 LuSTScenario.node[30].veinsmobility co2emission ETV
vector 155 LuSTScenario.node[31].veinsmobility posx ETV
vector 156 LuSTScenario.node[31].veinsmobility posy ETV
vector 157 LuSTScenario.node[31].veinsmobility speed ETV
vector 158 LuSTScenario.node[31].veinsmobility acceleration ETV
vector 159 LuSTScenario.node[31].veinsmobility co2emission ETV
vector 160 LuSTScenario.node[32].veinsmobility posx ETV
vector 161 LuSTScenario.node[32].veinsmobility posy ETV
vector 162 LuSTScenario.node[32].veinsmobility speed ETV
vector 163 LuSTScenario.node[32].veinsmobility acceleration ETV
vector 164 LuSTScenario.node[32].veinsmobility co2emission ETV
vector 165 LuSTScenario.node[33].veinsmobility posx ETV
vector 166 LuSTScenario.node[33].veinsmobility posy ETV
vector 167 LuSTScenario.node[34].veinsmobility posx ETV
vector 168 LuSTScenario.node[34].veinsmobility posy ETV
vector 169 LuSTScenario.node[33].veinsmobility speed ETV
vector 170 LuSTScenario.node[34].veinsmobility speed ETV
vector 171 LuSTScenario.node[35].veinsmobility posx ETV
vector 172 LuSTScenario.node[35].veinsmobility posy ETV
vector 173 LuSTScenario.node[33].veinsmobility acceleration ETV
vector 174 LuSTScenario.node[33].veinsmobility co2emission ETV
vector 175 LuSTScenario.node[34].veinsmobility acceleration ETV
vector 176 LuSTScenario.node[34].veinsmobility co2emission ETV
vector 177 LuSTScenario.node[35].veinsmobility speed ETV
vector 178 LuSTScenario.node[35].veinsmobility acceleration ETV
vector 179 LuSTScenario.node[35].veinsmobility co2emission ETV
vector 180 LuSTScenario.node[36].veinsmobility posx ETV
vector 181 LuSTScenario.node[36].veinsmobility posy ETV
vector 182 LuSTScenario.node[36].veinsmobility speed ETV
vector 183 LuSTScenario.node[36].veinsmobility acceleration ETV
vector 184 LuSTScenario.node[36].veinsmobility co2emission ETV
56	1394	17	4.2657407887826
56	1627	18	5.148970395194
56	1860	19	0.973
56	2093	20	0.973
56	2326	21	0.973
56	2559	22	4.8606474270855
56	2850	23	5.3275091725713
56	3141	24	6.2610497973751
56	3432	25	8.2432859323096
56	3723	26	9.5469232269902
56	4043	27	2.3337003156304
56	4363	28	2.3240141822104
56	4704	29	1.820301324219
56	5045	30	2.1094061329099
56	5386	31	2.4956582241925
56	5727	32	1.9559416389825
56	6068	33	2.117301920181
56	6417	34	1.9140214944923
56	6741	35	2.0962958330965
56	7061	36	2.0370484663563
56	7381	37	2.2554453717482
56	7742	38	2.1210431301894
56	8132	39	2.2875220205142
56	8522	40	2.1113476865632
56	9079	41	1.9447651168857
56	9636	42	2.1069528168312
56	10206	43	2.1522001161846
56	10785	44	2.1245241341221
56	11401	45	1.8043430089131
56	12017	46	2.284260599564
56	12646	47	2.1424841415675
56	13275	48	1.9336095013645
56	13904	49	2.0593991312519
56	14533	50	2.3247242587134
56	15162	51	2.2693015940496
56	15836	52	1.727824563952
56	16514	53	2.0526923091335
56	17192	54	2.4717965680853
56	17976	55	1.7803235922248
56	18760	56	2.1145145183092
56	19536	57	2.4131195233595
56	20312	58	2.0923224666545
56	21174	59	1.8578991779522
56	22036	60	2.0714137030575
56	22902	61	2.1764334106873
56	23768	62	2.1493353278278
56	24634	63	2.1382581480467
56	25508	64	2.0292591543027
56	26395	65	2.0883051440568
56	27282	66	1.998774834451
56	28177	67	2.346543430738
56	29068	68	2.2588199085074
56	29959	69	1.7308970341033
56	30850	70	2.2101160905369
56	31745	71	2.2498524531471
56	32644	72	2.1841818717042
56	33543	73	1.784240306644
56	34442	74	2.3360645005644
56	35345	75	1.9786262984834
56	36252	76	2.1618838247016
56	37151	77	2.1306403633813
56	38054	78	0.973
56	38953	79	0.973
56	39856	80	0.973
56	40763	81	0.973
56	41674	82	3.575698190511
56	42585	83	5.0452463871047
56	43496	84	6.1525210459733
56	44407	85	6.9737207241092
56	45318	86	9.1677114063992
56	46229	87	6.0268160601557
56	47132	88	2.066157021374
56	48084	89	1.8535661224872
56	49040	90	2.3983223214981
56	49996	91	1.9090850802473
56	50948	92	0.973
56	51904	93	0.973
56	52873	94	0.973
56	53842	95	0.973
56	54807	96	2.9747586202592
56	55772	97	5.0021510190622
56	56773	98	6.2619853125542
56	57782	99	7.6700190916706
56	58824	100	8.188400385697
56	59866	101	6.4149351903555
56	60904	102	2.1155335802714
56	61946	103	2.013200237802
56	63053	104	2.3633161011481
56	64160	105	0.973
56	65267	106	0.973
56	66370	107	0.973
55	1394	17	1.9974303029571
55	1627	18	1.9147586724861
55	1860	19	-0.50664699474309
55	2093	20	-2.7570516262174
55	2326	21	-0.22201066335504
55	2559	22	2.1699950246629
55	2850	23	1.860710547613
55	3141	24	1.8488467738382
55	3432	25	2.1348342804797
55	3723	26	2.1336936138081
55	4043	27	0.067082355603636
55	4363	28	0.062158153147903
55	4704	29	-0.078747639094946
55	5045	30	0.0035897482978182
55	5386	31	0.10953705552965
55	5727	32	-0.042033338740001
55	6068	33	0.0036478923074892
55	6417	34	-0.052615398038178
55	6741	35	-0.00069174937205396
55	7061	36	-0.017063231891953
55	7381	37	0.043734060784336
55	7742	38	0.0053655062173501
55	8132	39	0.050934458815027
55	8522	40	0.0010193364601587
55	9079	41	-0.044914981846233
55	9636	42	0.0011125891818669
55	10206	43	0.01353629356483
55	10785	44	0.0055138283269489
55	11401	45	-0.083235200683122
55	12017	46	0.051883212667891
55	12646	47	0.011236105356366
55	13275	48	-0.046809209410567
55	13904	49	-0.010653117476032
55	14533	50	0.062806445111056
55	15162	51	0.045538794032764
55	15836	52	-0.10526406428311
55	16514	53	-0.012292414219118
55	17192	54	0.10338023171294
55	17976	55	-0.090317305652423
55	18760	56	0.0047949390159907
55	19536	57	0.086714241802692
55	20312	58	-0.0040347152319722
55	21174	59	-0.068689165911637
55	22036	60	-0.0076760135684175
55	22902	61	0.021547254184261
55	23768	62	0.01341854847502
55	24634	63	0.0099603015510361
55	25508	64	-0.020397165755275
55	26395	65	-0.0035014689690431
55	27282	66	-0.028162000873126
55	28177	67	0.068524006297812
55	29068	68	0.042230401807464
55	29959	69	-0.10464136732044
55	30850	70	0.030856542619876
55	31745	71	0.040791505207308
55	32644	72	0.021489180971402
55	33543	73	-0.089534300216473
55	34442	74	0.06532391010318
55	35345	75	-0.035029261242599
55	36252	76	0.016527249524369
55	37151	77	0.0074278605962181
55	38054	78	-2.1436286902095
55	38953	79	-3.2636112745136
55	39856	80	-2.8529101352294
55	40763	81	-2.4703822554437
55	41674	82	1.6376001370087
55	42585	83	1.9583556700032
55	43496	84	1.9758438651729
55	44407	85	1.892458961918
55	45318	86	2.1960679069045
55	46229	87	1.1087601364355
55	47132	88	-0.011667082246859
55	48084	89	-0.070075994194484
55	49040	90	0.081973061449826
55	49996	91	-0.054999034896028
55	50948	92	-1.738427550622
55	51904	93	-3.2948837254038
55	52873	94	-3.0374717014648
55	53842	95	-2.5184139710096
55	54807	96	1.2559283142257
55	55772	97	1.9995342192124
55	56773	98	2.0572194392583
55	57782	99	2.1252877798886
55	58824	100	1.9258040680853
55	59866	101	1.2248920730598
55	60904	102	0.0035473375860615
55	61946	103	-0.02479953988921
55	63053	104	0.072228627617006
55	64160	105	-2.9051710117317
55	65267	106	-4.4985854924734
55	66370	107	-4.4970558733935
52	1161	16	3.9248316362666
52	1394	17	5.9222619392237
52	1627	18	7.8370206117098
52	1860	19	7.3303736169667
52	2093	20	4.5733219907493
52	2326	21	4.3513113273942
52	2559	22	6.5213063520572
52	2850	23	8.3820168996702
52	3141	24	10.230863673508
52	3432	25	12.365697953988
52	3723	26	14.499391567796
52	4043	27	14.5664739234
52	4363	28	14.628632076548
52	4704	29	14.549884437453
52	5045	30	14.553474185751
52	5386	31	14.66301124128
52	5727	32	14.62097790254
52	6068	33	14.624625794848
52	6417	34	14.57201039681
52	6741	35	14.571318647437
52	7061	36	14.554255415546
52	7381	37	14.59798947633
52	7742	38	14.603354982547
52	8132	39	14.654289441362
52	8522	40	14.655308777822
52	9079	41	14.610393795976
52	9636	42	14.611506385158
52	10206	43	14.625042678723
52	10785	44	14.63055650705
52	11401	45	14.547321306367
52	12017	46	14.599204519035
52	12646	47	14.610440624391
52	13275	48	14.56363141498
52	13904	49	14.552978297504
52	14533	50	14.615784742615
52	15162	51	14.661323536648
52	15836	52	14.556059472365
52	16514	53	14.543767058146
52	17192	54	14.647147289859
52	17976	55	14.556829984206
52	18760	56	14.561624923222
52	19536	57	14.648339165025
52	20312	58	14.644304449793
52	21174	59	14.575615283882
52	22036	60	14.567939270313
52	22902	61	14.589486524497
52	23768	62	14.602905072972
52	24634	63	14.612865374523
52	25508	64	14.592468208768
52	26395	65	14.588966739799
52	27282	66	14.560804738926
52	28177	67	14.629328745224
52	29068	68	14.671559147031
52	29959	69	14.566917779711
52	30850	70	14.597774322331
52	31745	71	14.638565827538
52	32644	72	14.660055008509
52	33543	73	14.570520708293
52	34442	74	14.635844618396
52	35345	75	14.600815357154
52	36252	76	14.617342606678
52	37151	77	14.624770467274
52	38054	78	12.481141777065
52	38953	79	9.217530502551
52	39856	80	6.3646203673216
52	40763	81	3.8942381118779
52	41674	82	5.5318382488866
52	42585	83	7.4901939188898
52	43496	84	9.4660377840627
52	44407	85	11.358496745981
52	45318	86	13.554564652885
52	46229	87	14.663324789321
52	47132	88	14.651657707074
52	48084	89	14.581581712879
52	49040	90	14.663554774329
52	49996	91	14.608555739433
52	50948	92	12.870128188811
52	51904	93	9.5752444634075
52	52873	94	6.5377727619426
52	53842	95	4.019358790933
52	54807	96	5.2752871051588
52	55772	97	7.2748213243711
52	56773	98	9.3320407636295
52	57782	99	11.457328543518
52	58824	100	13.383132611603
52	59866	101	14.608024684663
52	60904	102	14.611572022249
52	61946	103	14.58677248236
52	63053	104	14.659001109977
52	64160	105	11.753830098245
52	65267	106	7.2552446057718
52	66370	107	2.7581887323783
43	973	15	1888.0706465068
43	1161	16	1888.0706465068
43	1394	17	1890.4204619168
43	1627	18	1894.2732022754
43	1860	19	1899.6270907342
43	2093	20	1905.8070618781
43	2326	21	1909.8337544293
43	2559	22	1912.5407455471
43	2850	23	1916.0309003196
43	3141	24	1920.9408155033
43	3432	25	1929.1466599818
43	3723	26	1941.2683307151
43	4043	27	1956.1825127541
43	4363	28	1963.9311829142
43	4704	29	1972.8626844756
43	5045	30	1981.7983180064
43	5386	31	1990.7275388541
43	5727	32	1999.6422339777
43	6068	33	2008.5770636992
43	6417	34	2017.5024726275
43	6741	35	2026.4234726111
43	7061	36	2035.5627963704
43	7381	37	2044.9924078992
43	7742	38	2054.4443925439
43	8132	39	2063.8857487071
43	8522	40	2073.3293853022
43	9079	41	2082.7758171778
43	9636	42	2092.2172947471
43	10206	43	2101.6800754369
43	10785	44	2111.1970205784
43	11401	45	2120.8231409214
43	12017	46	2130.4466207996
43	12646	47	2140.0675026633
43	13275	48	2149.6917815942
43	13904	49	2159.3171719738
43	14533	50	2168.9336535963
43	15162	51	2178.5682605697
43	15836	52	2188.2002566012
43	16514	53	2197.8134336079
43	17192	54	2207.4438197447
43	17976	55	2217.0770656408
43	18760	56	2226.0096484601
43	19536	57	2215.7080393113
43	20312	58	2204.7167840312
43	21174	59	2193.7253442282
43	22036	60	2182.7444272117
43	22902	61	2171.8151090576
43	23768	62	2161.107972145
43	24634	63	2150.028063196
43	25508	64	2139.1006163262
43	26395	65	2128.2870811264
43	27282	66	2117.4621374061
43	28177	67	2106.5855400137
43	29068	68	2095.3461488534
43	29959	69	2084.2924405403
43	30850	70	2073.3293532321
43	31745	71	2062.3857765353
43	32644	72	2051.4933300145
43	33543	73	2040.606740395
43	34442	74	2029.7233700822
43	35345	75	2018.8432375079
43	36252	76	2007.7078775826
43	37151	77	1996.8180696644
43	38054	78	1985.9909076808
43	38953	79	1975.6347317319
43	39856	80	1967.6239693722
43	40763	81	1961.9533493517
43	41674	82	1958.2248195035
43	42585	83	1954.8583847408
43	43496	84	1950.5752849587
43	44407	85	1952.1732338318
43	45318	86	1959.3653786914
43	46229	87	1967.9798496367
43	47132	88	1977.783471231
43	48084	89	1987.7386384028
43	49040	90	1997.6927228728
43	49996	91	2007.602784092
43	50948	92	2017.4951993532
43	51904	93	2027.0220564269
43	52873	94	2034.4733594614
43	53842	95	2039.7967617504
43	54807	96	2043.2895747539
43	55772	97	2046.6534734489
43	56773	98	2052.8051489983
43	57782	99	2059.8182990761
43	58824	100	2068.3106692589
43	59866	101	2078.2838641474
43	60904	102	2089.0479727567
43	61946	103	2100.1227489024
43	63053	104	2111.1235300153
43	64160	105	2122.1362529976
43	65267	106	2132.33502248
43	66370	107	2139.3252170772
42	973	15	10678.600294314
42	1161	16	10678.600294314
42	1394	17	10680.563946655
42	1627	18	10683.783536837
42	1860	19	10688.257580015
42	2093	20	10693.509196264
42	2326	21	10697.642792158
42	2559	22	10700.421650296
42	2850	23	10703.28400278
42	3141	24	10700.115693235
42	3432	25	10693.748744692
42	3723	26	10690.910051339
42	4043	27	10693.263849904
42	4363	28	10691.013799494
42	4704	29	10679.438440318
42	5045	30	10667.857726047
42	5386	31	10656.285322709
42	5727	32	10644.731744927
42	6068	33	10633.152072405
42	6417	34	10621.584609371
42	6741	35	10610.022860396
42	7061	36	10598.607173401
42	7381	37	10587.475845931
42	7742	38	10576.318107778
42	8132	39	10565.172916177
42	8522	40	10554.025032606
42	9079	41	10542.873849304
42	9636	42	10531.728514387
42	10206	43	10520.55803188
42	10785	44	10509.476549951
42	11401	45	10498.472589162
42	12017	46	10487.471646783
42	12646	47	10476.473674286
42	13275	48	10465.471818481
42	13904	49	10454.468692139
42	14533	50	10443.475749715
42	15162	51	10432.462087557
42	15836	52	10421.45141006
42	16514	53	10410.46224526
42	17192	54	10399.45340809
42	17976	55	10388.441301828
42	18760	56	10377.054409582
42	19536	57	10366.943171271
42	20312	58	10357.336356689
42	21174	59	10347.729380826
42	22036	60	10338.095724525
42	22902	61	10328.386435618
42	23768	62	10318.46472002
42	24634	63	10308.930843122
42	25508	64	10299.238068442
42	26395	65	10289.448199493
42	27282	66	10279.657374683
42	28177	67	10269.937605726
42	29068	68	10260.583694039
42	29959	69	10251.01993573
42	30850	70	10241.376051779
42	31745	71	10231.686968554
42	32644	72	10221.940494105
42	33543	73	10212.195086468
42	34442	74	10202.452952548
42	35345	75	10192.713776917
42	36252	76	10183.265228089
42	37151	77	10173.532462263
42	38054	78	10163.738796733
42	38953	79	10154.522977681
42	39856	80	10147.438306812
42	40763	81	10142.416051694
42	41674	82	10139.216536938
42	42585	83	10136.36721965
42	43496	84	10131.394060419
42	44407	85	10123.699131157
42	45318	86	10116.086944963
42	46229	87	10106.837659684
42	47132	88	10096.311593316
42	48084	89	10085.622813731
42	49040	90	10074.935196634
42	49996	91	10064.190440235
42	50948	92	10053.438344376
42	51904	93	10043.083574809
42	52873	94	10034.984731162
42	53842	95	10029.198709225
42	54807	96	10025.410435535
42	55772	97	10022.953645763
42	56773	98	10024.241513586
42	57782	99	10029.040057983
42	58824	100	10035.285388598
42	59866	101	10042.76506538
42	60904	102	10052.137894645
42	61946	103	10061.668066171
42	63053	104	10071.288892498
42	64160	105	10080.901099481
42	65267	106	10089.806365427
42	66370	107	10095.90939247
vector 185 LuSTScenario.node[37].veinsmobility posx ETV
vector 186 LuSTScenario.node[37].veinsmobility posy ETV
vector 187 LuSTScenario.node[37].veinsmobility speed ETV
vector 188 LuSTScenario.node[37].veinsmobility acceleration ETV
vector 189 LuSTScenario.node[37].veinsmobility co2emission ETV
vector 190 LuSTScenario.node[38].veinsmobility posx ETV
vector 191 LuSTScenario.node[38].veinsmobility posy ETV
vector 192 LuSTScenario.node[38].veinsmobility speed ETV
vector 193 LuSTScenario.node[38].veinsmobility acceleration ETV
vector 194 LuSTScenario.node[38].veinsmobility co2emission ETV
vector 195 LuSTScenario.node[39].veinsmobility posx ETV
vector 196 LuSTScenario.node[39].veinsmobility posy ETV
vector 197 LuSTScenario.node[39].veinsmobility speed ETV
vector 198 LuSTScenario.node[39].veinsmobility acceleration ETV
vector 199 LuSTScenario.node[39].veinsmobility co2emission ETV
vector 200 LuSTScenario.node[40].veinsmobility posx ETV
vector 201 LuSTScenario.node[40].veinsmobility posy ETV
vector 202 LuSTScenario.node[41].veinsmobility posx ETV
vector 203 LuSTScenario.node[41].veinsmobility posy ETV
vector 204 LuSTScenario.node[40].veinsmobility speed ETV
vector 205 LuSTScenario.node[40].veinsmobility acceleration ETV
vector 206 LuSTScenario.node[40].veinsmobility co2emission ETV
vector 207 LuSTScenario.node[41].veinsmobility speed ETV
vector 208 LuSTScenario.node[42].veinsmobility posx ETV
vector 209 LuSTScenario.node[42].veinsmobility posy ETV
vector 210 LuSTScenario.node[41].veinsmobility acceleration ETV
vector 211 LuSTScenario.node[41].veinsmobility co2emission ETV
vector 212 LuSTScenario.node[42].veinsmobility speed ETV
vector 213 LuSTScenario.node[42].veinsmobility acceleration ETV
vector 214 LuSTScenario.node[42].veinsmobility co2emission ETV
vector 215 LuSTScenario.node[43].veinsmobility posx ETV
vector 216 LuSTScenario.node[43].veinsmobility posy ETV
vector 217 LuSTScenario.node[43].veinsmobility speed ETV
vector 218 LuSTScenario.node[44].veinsmobility posx ETV
vector 219 LuSTScenario.node[44].veinsmobility posy ETV
vector 220 LuSTScenario.node[43].veinsmobility acceleration ETV
vector 221 LuSTScenario.node[43].veinsmobility co2emission ETV
vector 222 LuSTScenario.node[44].veinsmobility speed ETV
vector 223 LuSTScenario.node[44].veinsmobility acceleration ETV
vector 224 LuSTScenario.node[44].veinsmobility co2emission ETV
vector 225 LuSTScenario.node[45].veinsmobility posx ETV
vector 226 LuSTScenario.node[45].veinsmobility posy ETV
vector 227 LuSTScenario.node[45].veinsmobility speed ETV
vector 228 LuSTScenario.node[45].veinsmobility acceleration ETV
vector 229 LuSTScenario.node[45].veinsmobility co2emission ETV
vector 230 LuSTScenario.node[46].veinsmobility posx ETV
vector 231 LuSTScenario.node[46].veinsmobility posy ETV
vector 232 LuSTScenario.node[47].veinsmobility posx ETV
vector 233 LuSTScenario.node[47].veinsmobility posy ETV
vector 234 LuSTScenario.node[46].veinsmobility speed ETV
vector 235 LuSTScenario.node[46].veinsmobility acceleration ETV
vector 236 LuSTScenario.node[46].veinsmobility co2emission ETV
vector 237 LuSTScenario.node[47].veinsmobility speed ETV
vector 238 LuSTScenario.node[47].veinsmobility acceleration ETV
vector 239 LuSTScenario.node[47].veinsmobility co2emission ETV
vector 240 LuSTScenario.node[48].veinsmobility posx ETV
vector 241 LuSTScenario.node[48].veinsmobility posy ETV
vector 242 LuSTScenario.node[48].veinsmobility speed ETV
vector 243 LuSTScenario.node[48].veinsmobility acceleration ETV
vector 244 LuSTScenario.node[48].veinsmobility co2emission ETV
vector 245 LuSTScenario.node[49].veinsmobility posx ETV
vector 246 LuSTScenario.node[49].veinsmobility posy ETV
vector 247 LuSTScenario.node[49].veinsmobility speed ETV
vector 248 LuSTScenario.node[49].veinsmobility acceleration ETV
vector 249 LuSTScenario.node[49].veinsmobility co2emission ETV
vector 250 LuSTScenario.node[50].veinsmobility posx ETV
vector 251 LuSTScenario.node[50].veinsmobility posy ETV
vector 252 LuSTScenario.node[50].veinsmobility speed ETV
vector 253 LuSTScenario.node[50].veinsmobility acceleration ETV
vector 254 LuSTScenario.node[50].veinsmobility co2emission ETV
38	839	14	5.1239357985115
38	973	15	6.264064182376
38	1161	16	7.6444193440055
38	1394	17	9.2819207612905
38	1627	18	11.17214629071
38	1860	19	0.973
38	2093	20	0.973
38	2326	21	0.973
38	2559	22	0.973
38	2850	23	1.2187484091789
38	3141	24	6.1615077827742
38	3432	25	6.7369376798422
38	3723	26	8.568638739319
38	4043	27	10.378097528834
38	4363	28	12.358829056877
38	4704	29	12.948013026286
38	5045	30	2.3406870500125
38	5386	31	2.9265917050887
38	5727	32	2.6124840968638
38	6068	33	2.6977084971759
38	6417	34	2.0549076097129
38	6741	35	3.2929211620138
38	7061	36	2.4734699890783
38	7381	37	0.973
38	7742	38	1.1496679981641
38	8132	39	2.1245801949265
38	8522	40	2.2093153834342
38	9079	41	2.0510113605628
38	9636	42	2.2459351030956
38	10206	43	2.3712236087551
38	10785	44	2.2994829540577
38	11401	45	2.0342412824729
38	12017	46	2.3639459038909
38	12646	47	0.973
38	13275	48	0.973
38	13904	49	0.973
38	14533	50	0.973
38	15162	51	4.171191038173
38	15836	52	6.2439512571702
38	16514	53	7.8206682138011
38	17192	54	9.0488044615805
38	17976	55	10.04865249838
38	18760	56	4.8441701995161
38	19536	57	2.0922791231104
38	20312	58	2.2700734880408
38	21174	59	2.5668135573814
38	22036	60	0.973
38	22902	61	0.973
38	23768	62	0.973
38	24634	63	0.973
38	25508	64	0.973
38	26395	65	5.9627278964712
38	27282	66	6.4347518722893
38	28177	67	7.7304725918893
38	29068	68	9.7973584655577
38	29959	69	10.536118070406
38	30850	70	2.2445120196082
38	31745	71	2.6096299014205
38	32644	72	1.9686871855449
38	33543	73	2.4281366189128
38	34442	74	2.3899782074926
38	35345	75	1.7809441234897
38	36252	76	2.1669265202483
38	37151	77	2.4085645586592
38	38054	78	2.0378914752794
38	38953	79	2.2437370906341
38	39856	80	2.1981016621175
38	40763	81	2.7546984118055
38	41674	82	1.8979093305168
38	42585	83	2.0825912510586
38	43496	84	2.4871003070872
38	44407	85	2.077686373596
38	45318	86	2.4515367304366
38	46229	87	1.8966458205533
38	47132	88	2.6188945870366
38	48084	89	2.0633309481393
38	49040	90	2.4751078443945
38	49996	91	2.1419309612587
38	50948	92	0.973
38	51904	93	0.973
38	52873	94	0.973
38	53842	95	0.973
38	54807	96	0.973
38	55772	97	4.0395035798866
38	56773	98	5.1621799442383
38	57782	99	6.7234884713864
38	58824	100	7.9742600576943
38	59866	101	9.9931067587376
38	60904	102	8.3279153844149
38	61946	103	0.973
38	63053	104	0.973
38	64160	105	0.973
38	65267	106	0.973
38	66370	107	0.973
38	67469	108	5.8269607789402
38	68552	109	5.9191013404435
38	69639	110	8.1713392965163
38	70726	111	9.1488644204317
38	71832	112	10.239825672056
38	72942	113	3.6502686901719
38	74068	114	2.0255741393124
38	75190	115	2.3381488125862
38	76308	116	2.2570611267967
38	77426	117	0.973
38	78589	118	0.973
38	79756	119	0.973
38	80919	120	0.973
38	82111	121	0.973
38	83324	122	5.9750151966408
38	84541	123	5.8469456769604
38	85799	124	6.9949419713255
38	87057	125	8.5379179996921
38	88311	126	10.441212427575
38	89557	127	4.9700643572655
38	90803	128	2.2187607112831
38	92106	129	2.1248572240369
38	93405	130	2.0923356634577
38	94745	131	2.4492837118842
38	96093	132	2.3551778771076
38	97449	133	2.1567216371776
38	98813	134	2.0769800661237
38	100198	135	1.9729645823303
38	101587	136	2.5653553038966
38	102976	137	2.3272949430001
38	104365	138	0.973
38	105758	139	0.973
38	107155	140	0.973
38	108645	141	0.973
38	110162	142	0.973
38	111679	143	0.973
38	113200	144	0.973
38	114721	145	0.973
38	116246	146	1.11
38	117806	147	1.11
38	119354	148	1.11
38	120902	149	1.11
38	122446	150	1.11
38	124002	151	1.11
38	125558	152	1.11
38	127114	153	1.11
38	128674	154	1.11
38	130254	155	1.11
38	131863	156	1.11
38	133468	157	1.11
38	135069	158	1.11
38	136686	159	1.11
38	138321	160	1.11
38	139964	161	1.11
38	141636	162	1.11
38	143308	163	1.11
38	144992	164	1.11
38	146684	165	3.4035095539312
38	148372	166	5.1521045500544
38	150060	167	6.2475639061035
38	151756	168	7.736820812398
38	153452	169	7.7386983824297
38	155156	170	9.2707092480916
38	156868	171	6.6745733650332
38	158592	172	2.4226928000691
38	160324	173	0.973
38	162060	174	0.973
38	163792	175	0.973
37	839	14	2.2665181279066
37	973	15	2.1772574155591
37	1161	16	2.1994210901088
37	1394	17	2.2709018066176
37	1627	18	2.3619998133159
37	1860	19	-2.1038044434502
37	2093	20	-3.3494175916288
37	2326	21	-2.9956980244635
37	2559	22	-2.6376458892349
37	2850	23	-0.10816867000639
37	3141	24	2.687884935562
37	3432	25	2.2375250393408
37	3723	26	2.3664632664062
37	4043	27	2.4236103508738
37	4363	28	2.4842991380487
37	4704	29	2.2511135476787
37	5045	30	-0.067015137209093
37	5386	31	0.059475548216142
37	5727	32	-0.0089681247482076
37	6068	33	0.0093803017283811
37	6417	34	-0.12800746791763
37	6741	35	0.13917196411639
37	7061	36	-0.03884578014258
37	7381	37	-2.9129471893539
37	7742	38	-0.28465617482042
37	8132	39	-0.026846294116694
37	8522	40	-0.0043358875089332
37	9079	41	-0.044901977595874
37	9636	42	0.0065340603701785
37	10206	43	0.038432735705282
37	10785	44	0.018876701791305
37	11401	45	-0.049734629353042
37	12017	46	0.036328985576983
37	12646	47	-3.2308206088708
37	13275	48	-3.3582100237263
37	13904	49	-2.829088211592
37	14533	50	-2.4375171779072
37	15162	51	1.9675039253548
37	15836	52	2.3727396274335
37	16514	53	2.3874921082053
37	17192	54	2.2939841218991
37	17976	55	2.1764863300254
37	18760	56	0.68893777674127
37	19536	57	-0.035302707448135
37	20312	58	0.011302970268297
37	21174	59	0.086478042451199
37	22036	60	-0.95495555437699
37	22902	61	-3.3745954871202
37	23768	62	-3.1598709352487
37	24634	63	-2.8741450504541
37	25508	64	-1.7235916016059
37	26395	65	2.8487786708632
37	27282	66	2.269740010961
37	28177	67	2.2339057844016
37	29068	68	2.4049049823079
37	29959	69	2.2004332445911
37	30850	70	0.0057142761735225
37	31745	71	0.098645142337773
37	32644	72	-0.068071706034244
37	33543	73	0.051491885678843
37	34442	74	0.040108456159942
37	35345	75	-0.11705313589191
37	36252	76	-0.01453178843949
37	37151	77	0.047816669067833
37	38054	78	-0.048667999939061
37	38953	79	0.0056528541259464
37	39856	80	-0.006235136766918
37	40763	81	0.13575023553567
37	41674	82	-0.08694793061586
37	42585	83	-0.03714870371623
37	43496	84	0.067493869853207
37	44407	85	-0.039246539329179
37	45318	86	0.057496015587821
37	46229	87	-0.086327666428405
37	47132	88	0.1009855141514
37	48084	89	-0.043832030205522
37	49040	90	0.062536047329196
37	49996	91	-0.024235378077719
37	50948	92	-0.76556739978453
37	51904	93	-3.5017860648011
37	52873	94	-3.1307641350079
37	53842	95	-2.776606216707
37	54807	96	-2.3811157325892
37	55772	97	2.0808553119306
37	56773	98	2.0617760571884
37	57782	99	2.1998045587912
37	58824	100	2.1733446907718
37	59866	101	2.3416019800119
37	60904	102	1.6137553787103
37	61946	103	-0.97612459214004
37	63053	104	-3.3964191700499
37	64160	105	-3.1400018507391
37	65267	106	-2.7784738883403
37	66370	107	-1.7960383543837
37	67469	108	2.8262675135862
37	68552	109	2.1080775954179
37	69639	110	2.4254137782497
37	70726	111	2.2555182487937
37	71832	112	2.1701397025609
37	72942	113	0.37313091184229
37	74068	114	-0.053019312350079
37	75190	115	0.028590960020665
37	76308	116	0.0069975722115476
37	77426	117	-0.97104901358077
37	78589	118	-3.4538330082115
37	79756	119	-3.2032258342699
37	80919	120	-2.7102508024389
37	82111	121	-1.8044054765925
37	83324	122	2.8909835710307
37	84541	123	2.0669776737923
37	85799	124	2.0560354310204
37	87057	125	2.1508227353683
37	88311	126	2.2847543700133
37	89557	127	0.71978661301976
37	90803	128	-0.0037918051122681
37	92106	129	-0.027693602826911
37	93405	130	-0.035258856858128
37	94745	131	0.057061702315696
37	96093	132	0.031266251346096
37	97449	133	-0.02026529442519
37	98813	134	-0.04010587352095
37	100198	135	-0.065785967395641
37	101587	136	0.08786716730101
37	102976	137	0.024391841806937
37	104365	138	-3.4468478725982
37	105758	139	-3.2220997521954
37	107155	140	-2.8344646265437
37	108645	141	-2.4174500202428
37	110162	142	-1.8947530053914
37	111679	143	-1.0693857183329
37	113200	144	-0.46363124383902
37	114721	145	-0.43389402677746
37	116246	146	-4.6992473274232e-05
37	117806	147	-1.8245026532389e-15
37	119354	148	1.4403645445269e-15
37	120902	149	-1.1268101959185e-15
37	122446	150	1.3205305134245e-15
37	124002	151	-3.7909203600718e-16
37	125558	152	6.558627871427e-17
37	127114	153	-1.1017920325188e-15
37	128674	154	8.5394994340326e-16
37	130254	155	-5.6429670490756e-16
37	131863	156	5.1487005859533e-16
37	133468	157	2.1062060838172e-16
37	135069	158	-3.5134001744984e-16
37	136686	159	3.4441090786836e-16
37	138321	160	-1.4125961652554e-15
37	139964	161	1.6973582183657e-15
37	141636	162	-1.8798955416661e-15
37	143308	163	9.204239441397e-16
37	144992	164	-2.1490042345655e-17
37	146684	165	2.9847931596138
37	148372	166	2.7248583570239
37	150060	167	2.4024855805677
37	151756	168	2.3787109703058
37	153452	169	1.9511510118842
37	155156	170	2.055051029264
37	156868	171	1.1785980867713
37	158592	172	0.051363129867241
37	160324	173	-1.724274045129
37	162060	174	-4.473227318457
37	163792	175	-4.5
34	726	13	4.4387491583354
34	839	14	6.705267286242
34	973	15	8.8825247018012
34	1161	16	11.08194579191
34	1394	17	13.352847598528
34	1627	18	15.714847411844
34	1860	19	13.611042968393
34	2093	20	10.261625376764
34	2326	21	7.265927352301
34	2559	22	4.6282814630661
34	2850	23	4.5201127930597
34	3141	24	7.2079977286217
34	3432	25	9.4455227679626
34	3723	26	11.811986034369
34	4043	27	14.235596385243
34	4363	28	16.719895523291
34	4704	29	18.97100907097
34	5045	30	18.903993933761
34	5386	31	18.963469481977
34	5727	32	18.954501357229
34	6068	33	18.963881658957
34	6417	34	18.835874191039
34	6741	35	18.975046155156
34	7061	36	18.936200375013
34	7381	37	16.023253185659
34	7742	38	15.738597010839
34	8132	39	15.711750716722
34	8522	40	15.707414829213
34	9079	41	15.662512851618
34	9636	42	15.669046911988
34	10206	43	15.707479647693
34	10785	44	15.726356349484
34	11401	45	15.676621720131
34	12017	46	15.712950705708
34	12646	47	12.482130096837
34	13275	48	9.1239200731111
34	13904	49	6.2948318615191
34	14533	50	3.8573146836119
34	15162	51	5.8248186089667
34	15836	52	8.1975582364002
34	16514	53	10.585050344606
34	17192	54	12.879034466505
34	17976	55	15.05552079653
34	18760	56	15.744458573271
34	19536	57	15.709155865823
34	20312	58	15.720458836091
34	21174	59	15.806936878543
34	22036	60	14.851981324166
34	22902	61	11.477385837045
34	23768	62	8.3175149017967
34	24634	63	5.4433698513426
34	25508	64	3.7197782497367
34	26395	65	6.5685569206
34	27282	66	8.8382969315609
34	28177	67	11.072202715962
34	29068	68	13.47710769827
34	29959	69	15.677540942862
34	30850	70	15.683255219035
34	31745	71	15.781900361373
34	32644	72	15.713828655339
34	33543	73	15.765320541017
34	34442	74	15.805428997177
34	35345	75	15.688375861285
34	36252	76	15.673844072846
34	37151	77	15.721660741914
34	38054	78	15.672992741975
34	38953	79	15.678645596101
34	39856	80	15.672410459334
34	40763	81	15.808160694869
34	41674	82	15.721212764254
34	42585	83	15.684064060537
34	43496	84	15.751557930391
34	44407	85	15.712311391061
34	45318	86	15.769807406649
34	46229	87	15.683479740221
34	47132	88	15.784465254372
34	48084	89	15.740633224167
34	49040	90	15.803169271496
34	49996	91	15.778933893418
34	50948	92	15.013366493634
34	51904	93	11.511580428832
34	52873	94	8.3808162938246
34	53842	95	5.6042100771176
34	54807	96	3.2230943445284
34	55772	97	5.303949656459
34	56773	98	7.3657257136474
34	57782	99	9.5655302724386
34	58824	100	11.73887496321
34	59866	101	14.080476943222
34	60904	102	15.694232321933
34	61946	103	14.718107729793
34	63053	104	11.321688559743
34	64160	105	8.1816867090036
34	65267	106	5.4032128206634
34	66370	107	3.6071744662797
34	67469	108	6.4334419798659
34	68552	109	8.5415195752838
34	69639	110	10.966933353533
34	70726	111	13.222451602327
34	71832	112	15.392591304888
34	72942	113	15.76572221673
34	74068	114	15.71270290438
34	75190	115	15.741293864401
34	76308	116	15.748291436612
34	77426	117	14.777242423032
34	78589	118	11.32340941482
34	79756	119	8.1201835805502
34	80919	120	5.4099327781113
34	82111	121	3.6055273015188
34	83324	122	6.4965108725495
34	84541	123	8.5634885463417
34	85799	124	10.619523977362
34	87057	125	12.77034671273
34	88311	126	15.055101082744
34	89557	127	15.774887695763
34	90803	128	15.771095890651
34	92106	129	15.743402287824
34	93405	130	15.708143430966
34	94745	131	15.765205133282
34	96093	132	15.796471384628
34	97449	133	15.776206090203
34	98813	134	15.736100216682
34	100198	135	15.670314249286
34	101587	136	15.758181416587
34	102976	137	15.782573258394
34	104365	138	12.335725385796
34	105758	139	9.1136256336006
34	107155	140	6.2791610070569
34	108645	141	3.8617109868141
34	110162	142	1.9669579814227
34	111679	143	0.8975722630898
34	113200	144	0.43394101925078
34	114721	145	4.6992473321873e-05
34	116246	146	4.7641348500409e-14
34	117806	147	4.581684584717e-14
34	119354	148	4.7257210391697e-14
34	120902	149	4.6130400195778e-14
34	122446	150	4.7450930709203e-14
34	124002	151	4.7071838673195e-14
34	125558	152	4.713742495191e-14
34	127114	153	4.6035632919391e-14
34	128674	154	4.6889582862794e-14
34	130254	155	4.6325286157887e-14
34	131863	156	4.6840156216482e-14
34	133468	157	4.7050776824864e-14
34	135069	158	4.6699436807414e-14
34	136686	159	4.7043847715282e-14
34	138321	160	4.5631251550027e-14
34	139964	161	4.7328609768393e-14
34	141636	162	4.5448714226726e-14
34	143308	163	4.6369138170866e-14
34	144992	164	4.634764812852e-14
34	146684	165	2.9847931596138
34	148372	166	5.7096515166377
34	150060	167	8.1121370972054
34	151756	168	10.490848067511
34	153452	169	12.441999079396
34	155156	170	14.49705010866
34	156868	171	15.675648195431
34	158592	172	15.727011325298
34	160324	173	14.002737280169
34	162060	174	9.5295099617121
34	163792	175	5.0295099617121
31	622	12	6182.6761609986
31	726	13	6182.6761609986
31	839	14	6179.2370407614
31	973	15	6173.6102637251
31	1161	16	6165.99351202
31	1394	17	6156.2101012567
31	1627	18	6144.2619448256
31	1860	19	6130.0636229078
31	2093	20	6115.4926364901
31	2326	21	6104.0474063614
31	2559	22	6095.7180932407
31	2850	23	6090.1410455522
31	3141	24	6086.3237322807
31	3432	25	6080.494324881
31	3723	26	6074.2392626099
31	4043	27	6074.1218149883
31	4363	28	6074.2505462093
31	4704	29	6074.3871960289
31	5045	30	6074.3729950136
31	5386	31	6074.8729105548
31	5727	32	6078.363636594
31	6068	33	6089.7464459862
31	6417	34	6100.3488283897
31	6741	35	6107.8205253957
31	7061	36	6111.4727149238
31	7381	37	6113.2323820444
31	7742	38	6112.7883361027
31	8132	39	6123.4431492498
31	8522	40	6139.2079758021
31	9079	41	6155.2810404798
31	9636	42	6169.5148012111
31	10206	43	6183.0036076317
31	10785	44	6196.1039841989
31	11401	45	6209.2304274087
31	12017	46	6224.4036112465
31	12646	47	6239.4360232405
31	13275	48	6252.8325724469
31	13904	49	6262.9958856623
31	14533	50	6270.2292552958
31	15162	51	6274.9008317661
31	15836	52	6279.2235442475
31	16514	53	6286.2083395394
31	17192	54	6295.5324739517
31	17976	55	6307.1273480518
31	18760	56	6320.8813041537
31	19536	57	6336.1912246083
31	20312	58	6351.6202516715
31	21174	59	6367.0230989999
31	22036	60	6382.4455059587
31	22902	61	6397.7085861024
31	23768	62	6410.4391270826
31	24634	63	6419.9558204855
31	25508	64	6426.5164218792
31	26395	65	6430.6757891708
31	27282	66	6435.9654612546
31	28177	67	6443.8449516943
31	29068	68	6454.1350870712
31	29959	69	6464.9388561384
31	30850	70	6477.1861335052
31	31745	71	6490.2849041159
31	32644	72	6503.3712252414
31	33543	73	6516.4718119803
31	34442	74	6529.6426703378
31	35345	75	6542.9475754842
31	36252	76	6556.3553393223
31	37151	77	6569.7752502669
31	38054	78	6583.1923155323
31	38953	79	6596.6436766549
31	39856	80	6611.038551432
31	40763	81	6625.444084728
31	41674	82	6639.8385769345
31	42585	83	6654.3863219732
31	43496	84	6669.2063923378
31	44407	85	6685.1382911542
31	45318	86	6699.9742389807
31	46229	87	6714.8189423744
31	47132	88	6729.6340806711
31	48084	89	6744.4535770971
31	49040	90	6759.2793852687
31	49996	91	6774.1572232794
31	50948	92	6789.0776495214
31	51904	93	6803.8871697976
31	52873	94	6816.2791439909
31	53842	95	6825.5608901392
31	54807	96	6832.0127092699
31	55772	97	6836.0274120572
31	56773	98	6840.2306776673
31	57782	99	6846.373783531
31	58824	100	6854.6264642749
31	59866	101	6861.9374564771
31	60904	102	6865.9043446947
31	61946	103	6870.5312984965
31	63053	104	6875.2655934048
31	64160	105	6879.1716697023
31	65267	106	6882.084771907
31	66370	107	6884.0937537186
31	67469	108	6885.5315629079
31	68552	109	6889.3375829597
31	69639	110	6896.7161405336
31	70726	111	6906.134727954
31	71832	112	6917.6836972994
31	72942	113	6931.2523534819
31	74068	114	6946.0799770164
31	75190	115	6960.9276065643
31	76308	116	6975.7667347485
31	77426	117	6990.6136160918
31	78589	118	7005.2522526452
31	79756	119	7017.3354245633
31	80919	120	7026.3483961207
31	82111	121	7032.5642351737
31	83324	122	7036.4554738971
31	84541	123	7041.4355318028
31	85799	124	7046.2971392769
31	87057	125	7050.5730628968
31	88311	126	7058.7793835927
31	89557	127	7065.0024478401
31	90803	128	7071.9481582825
31	92106	129	7078.9117557635
31	93405	130	7085.8707846158
31	94745	131	7092.8325277612
31	96093	132	7099.9718699548
31	97449	133	7109.0009457173
31	98813	134	7118.3302062981
31	100198	135	7127.8261999256
31	101587	136	7137.3210991334
31	102976	137	7146.818426009
31	104365	138	7156.3365726619
31	105758	139	7165.0939344478
31	107155	140	7172.3489223293
31	108645	141	7177.51087517
31	110162	142	7180.8490990303
31	111679	143	7182.7194929248
31	113200	144	7183.6374364147
31	114721	145	7184.0292001284
31	116246	146	7184.2433312433
31	117806	147	7184.2433313825
31	119354	148	7184.2433313825
31	120902	149	7184.2433313825
31	122446	150	7184.2433313825
31	124002	151	7184.2433313825
31	125558	152	7184.2433313825
31	127114	153	7184.2433313825
31	128674	154	7184.2433313825
31	130254	155	7184.2433313825
31	131863	156	7184.2433313825
31	133468	157	7184.2433313825
31	135069	158	7184.2433313825
31	136686	159	7184.2433313825
31	138321	160	7184.2433313825
31	139964	161	7184.2433313825
31	141636	162	7184.2433313825
31	143308	163	7184.2433313825
31	144992	164	7184.2433313825
31	146684	165	7184.2433313825
31	148372	166	7185.4810248894
31	150060	167	7189.858736581
31	151756	168	7196.3935032095
31	153452	169	7204.852702513
31	155156	170	7215.7709574119
31	156868	171	7229.057244066
31	158592	172	7244.2293307566
31	160324	173	7259.6038715932
31	162060	174	7274.4350199979
31	163792	175	7285.5705436999
30	622	12	8039.2926551335
30	726	13	8039.2926551335
30	839	14	8038.4382258978
30	973	15	8037.0402861716
30	1161	16	8035.1479489198
30	1394	17	8032.7173179431
30	1627	18	8029.7488686119
30	1860	19	8026.2213788738
30	2093	20	8022.6013028281
30	2326	21	8019.7578025847
30	2559	22	8017.6884336319
30	2850	23	8016.3028488702
30	3141	24	8015.3544597951
30	3432	25	8013.6863762966
30	3723	26	8008.6449025246
30	4043	27	7997.908256
30	4363	28	7984.700295675
30	4704	29	7969.1166227236
30	5045	30	7951.1850442104
30	5386	31	7932.3903136573
30	5727	32	7914.2708724998
30	6068	33	7899.1435237042
30	6417	34	7883.4801324
30	6741	35	7866.0575998112
30	7061	36	7847.43599501
30	7381	37	7828.559591062
30	7742	38	7810.988892818
30	8132	39	7798.7964457906
30	8522	40	7797.4097841361
30	9079	41	7800.2421012532
30	9636	42	7807.0432155957
30	10206	43	7815.1542757727
30	10785	44	7823.9832883018
30	11401	45	7832.7428541346
30	12017	46	7830.805642061
30	12646	47	7826.2145700246
30	13275	48	7822.1231093548
30	13904	49	7819.0191162551
30	14533	50	7816.8099617251
30	15162	51	7815.3832083799
30	15836	52	7814.0630021214
30	16514	53	7812.2391925053
30	17192	54	7810.1565362425
30	17976	55	7807.7817884081
30	18760	56	7804.9648386779
30	19536	57	7801.8292116645
30	20312	58	7798.6691904095
30	21174	59	7795.5145310297
30	22036	60	7792.3558656392
30	22902	61	7789.2298319967
30	23768	62	7786.6224880649
30	24634	63	7784.6733727184
30	25508	64	7783.3296950021
30	26395	65	7782.477814388
30	27282	66	7781.3183861255
30	28177	67	7779.2672574509
30	29068	68	7776.8554377352
30	29959	69	7781.979575622
30	30850	70	7790.1697053781
30	31745	71	7798.9292547648
30	32644	72	7807.6804787992
30	33543	73	7816.4412426865
30	34442	74	7825.0560761172
30	35345	75	7833.2530175494
30	36252	76	7841.4775883383
30	37151	77	7849.7096103874
30	38054	78	7857.9398868441
30	38953	79	7866.1266719236
30	39856	80	7872.4894220102
30	40763	81	7878.8259079093
30	41674	82	7885.1575372227
30	42585	83	7891.0606061246
30	43496	84	7896.308407066
30	44407	85	7898.4482681874
30	45318	86	7903.6831114766
30	46229	87	7908.918841128
30	47132	88	7914.1441431641
30	48084	89	7919.3709823132
30	49040	90	7924.6000476162
30	49996	91	7929.7339302853
30	50948	92	7934.7340303
30	51904	93	7939.6969637544
30	52873	94	7943.8497345494
30	53842	95	7946.9602126484
30	54807	96	7949.1223319074
30	55772	97	7950.4649963173
30	56773	98	7951.869686624
30	57782	99	7953.7955476604
30	58824	100	7955.926332779
30	59866	101	7951.0862966967
30	60904	102	7938.6922136818
30	61946	103	7924.2358321606
30	63053	104	7909.4440757783
30	64160	105	7897.2399925679
30	65267	106	7888.1383419604
30	66370	107	7881.8615108572
30	67469	108	7878.0071536227
30	68552	109	7874.8573187593
30	69639	110	7876.3672215305
30	70726	111	7879.4357644002
30	71832	112	7883.3434465783
30	72942	113	7888.1394479373
30	74068	114	7893.3804461368
30	75190	115	7898.6285156974
30	76308	116	7903.8735803509
30	77426	117	7909.1213854497
30	78589	118	7914.2955839746
30	79756	119	7918.5665234222
30	80919	120	7921.752264387
30	82111	121	7923.9493259194
30	83324	122	7925.3247300828
30	84541	123	7926.9181872086
30	85799	124	7921.854740647
30	87057	125	7913.1952008633
30	88311	126	7904.025764393
30	89557	127	7891.4203007824
30	90803	128	7877.3510421739
30	92106	129	7863.2455515093
30	93405	130	7849.1493150772
30	94745	131	7835.0475805622
30	96093	132	7821.2722487071
30	97449	133	7808.4661013491
30	98813	134	7795.8262954176
30	100198	135	7783.3206995929
30	101587	136	7770.8165450463
30	102976	137	7758.3091934219
30	104365	138	7745.7744235272
30	105758	139	7734.9812945462
30	107155	140	7727.3074422255
30	108645	141	7721.8474656642
30	110162	142	7718.3165105013
30	111679	143	7716.3381300046
30	113200	144	7715.3671893366
30	114721	145	7714.9528072684
30	116246	146	7714.726313361
30	117806	147	7714.7263132138
30	119354	148	7714.7263132138
30	120902	149	7714.7263132138
30	122446	150	7714.7263132138
30	124002	151	7714.7263132138
30	125558	152	7714.7263132138
30	127114	153	7714.7263132138
30	128674	154	7714.7263132138
30	130254	155	7714.7263132138
30	131863	156	7714.7263132138
30	133468	157	7714.7263132138
30	135069	158	7714.7263132138
30	136686	159	7714.7263132138
30	138321	160	7714.7263132138
30	139964	161	7714.7263132138
30	141636	162	7714.7263132138
30	143308	163	7714.7263132138
30	144992	164	7714.7263132138
30	146684	165	7714.7263132138
30	148372	166	7713.6898603081
30	150060	167	7713.0270617168
30	151756	168	7715.357459251
30	153452	169	7719.5732105903
30	155156	170	7723.1976821916
30	156868	171	7726.0657992387
30	158592	172	7729.3410048405
30	160324	173	7732.6698253597
30	162060	174	7736.4564579293
30	163792	175	7739.5238392495
vector 255 LuSTScenario.node[51].veinsmobility posx ETV
vector 256 LuSTScenario.node[51].veinsmobility posy ETV
vector 257 LuSTScenario.node[51].veinsmobility speed ETV
vector 258 LuSTScenario.node[51].veinsmobility acceleration ETV
vector 259 LuSTScenario.node[51].veinsmobility co2emission ETV
vector 260 LuSTScenario.node[52].veinsmobility posx ETV
vector 261 LuSTScenario.node[52].veinsmobility posy ETV
vector 262 LuSTScenario.node[52].veinsmobility speed ETV
vector 263 LuSTScenario.node[52].veinsmobility acceleration ETV
vector 264 LuSTScenario.node[52].veinsmobility co2emission ETV
vector 265 LuSTScenario.node[53].veinsmobility posx ETV
vector 266 LuSTScenario.node[53].veinsmobility posy ETV
vector 267 LuSTScenario.node[53].veinsmobility speed ETV
vector 268 LuSTScenario.node[53].veinsmobility acceleration ETV
vector 269 LuSTScenario.node[53].veinsmobility co2emission ETV
vector 270 LuSTScenario.node[54].veinsmobility posx ETV
vector 271 LuSTScenario.node[54].veinsmobility posy ETV
vector 272 LuSTScenario.node[54].veinsmobility speed ETV
vector 273 LuSTScenario.node[55].veinsmobility posx ETV
vector 274 LuSTScenario.node[55].veinsmobility posy ETV
vector 275 LuSTScenario.node[56].veinsmobility posx ETV
vector 276 LuSTScenario.node[56].veinsmobility posy ETV
vector 277 LuSTScenario.node[54].veinsmobility acceleration ETV
vector 278 LuSTScenario.node[54].veinsmobility co2emission ETV
vector 279 LuSTScenario.node[55].veinsmobility speed ETV
vector 280 LuSTScenario.node[56].veinsmobility speed ETV
vector 281 LuSTScenario.node[55].veinsmobility acceleration ETV
vector 282 LuSTScenario.node[55].veinsmobility co2emission ETV
vector 283 LuSTScenario.node[56].veinsmobility acceleration ETV
vector 284 LuSTScenario.node[56].veinsmobility co2emission ETV
vector 285 LuSTScenario.node[57].veinsmobility posx ETV
vector 286 LuSTScenario.node[57].veinsmobility posy ETV
vector 287 LuSTScenario.node[57].veinsmobility speed ETV
vector 288 LuSTScenario.node[58].veinsmobility posx ETV
vector 289 LuSTScenario.node[58].veinsmobility posy ETV
vector 290 LuSTScenario.node[57].veinsmobility acceleration ETV
vector 291 LuSTScenario.node[57].veinsmobility co2emission ETV
vector 292 LuSTScenario.node[59].veinsmobility posx ETV
vector 293 LuSTScenario.node[59].veinsmobility posy ETV
vector 294 LuSTScenario.node[58].veinsmobility speed ETV
vector 295 LuSTScenario.node[58].veinsmobility acceleration ETV
vector 296 LuSTScenario.node[58].veinsmobility co2emission ETV
vector 297 LuSTScenario.node[59].veinsmobility speed ETV
vector 298 LuSTScenario.node[60].veinsmobility posx ETV
vector 299 LuSTScenario.node[60].veinsmobility posy ETV
vector 300 LuSTScenario.node[59].veinsmobility acceleration ETV
vector 301 LuSTScenario.node[59].veinsmobility co2emission ETV
vector 302 LuSTScenario.node[61].veinsmobility posx ETV
vector 303 LuSTScenario.node[61].veinsmobility posy ETV
vector 304 LuSTScenario.node[60].veinsmobility speed ETV
vector 305 LuSTScenario.node[60].veinsmobility acceleration ETV
vector 306 LuSTScenario.node[60].veinsmobility co2emission ETV
vector 307 LuSTScenario.node[61].veinsmobility speed ETV
vector 308 LuSTScenario.node[61].veinsmobility acceleration ETV
vector 309 LuSTScenario.node[61].veinsmobility co2emission ETV
vector 310 LuSTScenario.node[62].veinsmobility posx ETV
vector 311 LuSTScenario.node[62].veinsmobility posy ETV
vector 312 LuSTScenario.node[63].veinsmobility posx ETV
vector 313 LuSTScenario.node[63].veinsmobility posy ETV
vector 314 LuSTScenario.node[62].veinsmobility speed ETV
vector 315 LuSTScenario.node[62].veinsmobility acceleration ETV
vector 316 LuSTScenario.node[62].veinsmobility co2emission ETV
vector 317 LuSTScenario.node[63].veinsmobility speed ETV
vector 318 LuSTScenario.node[64].veinsmobility posx ETV
vector 319 LuSTScenario.node[64].veinsmobility posy ETV
vector 320 LuSTScenario.node[63].veinsmobility acceleration ETV
vector 321 LuSTScenario.node[63].veinsmobility co2emission ETV
vector 322 LuSTScenario.node[64].veinsmobility speed ETV
vector 323 LuSTScenario.node[64].veinsmobility acceleration ETV
vector 324 LuSTScenario.node[64].veinsmobility co2emission ETV
vector 325 LuSTScenario.node[65].veinsmobility posx ETV
vector 326 LuSTScenario.node[65].veinsmobility posy ETV
vector 327 LuSTScenario.node[65].veinsmobility speed ETV
vector 328 LuSTScenario.node[66].veinsmobility posx ETV
vector 329 LuSTScenario.node[66].veinsmobility posy ETV
vector 330 LuSTScenario.node[65].veinsmobility acceleration ETV
vector 331 LuSTScenario.node[65].veinsmobility co2emission ETV
vector 332 LuSTScenario.node[66].veinsmobility speed ETV
vector 333 LuSTScenario.node[66].veinsmobility acceleration ETV
vector 334 LuSTScenario.node[66].veinsmobility co2emission ETV
vector 335 LuSTScenario.node[67].veinsmobility posx ETV
vector 336 LuSTScenario.node[67].veinsmobility posy ETV
vector 337 LuSTScenario.node[68].veinsmobility posx ETV
vector 338 LuSTScenario.node[68].veinsmobility posy ETV
vector 339 LuSTScenario.node[67].veinsmobility speed ETV
vector 340 LuSTScenario.node[68].veinsmobility speed ETV
vector 341 LuSTScenario.node[67].veinsmobility acceleration ETV
vector 342 LuSTScenario.node[67].veinsmobility co2emission ETV
vector 343 LuSTScenario.node[68].veinsmobility acceleration ETV
vector 344 LuSTScenario.node[68].veinsmobility co2emission ETV
vector 345 LuSTScenario.node[69].veinsmobility posx ETV
vector 346 LuSTScenario.node[69].veinsmobility posy ETV
vector 347 LuSTScenario.node[69].veinsmobility speed ETV
106	9636	42	3.9454808308157
106	10206	43	5.6010594078135
106	10785	44	6.004244183452
106	11401	45	7.1689429442514
106	12017	46	8.0948719156203
106	12646	47	9.6458548008748
106	13275	48	2.0789680877149
106	13904	49	2.2655466558829
106	14533	50	2.1463927809163
106	15162	51	2.1279895969004
106	15836	52	2.2654957389849
106	16514	53	2.3380575820165
106	17192	54	2.2062649904909
106	17976	55	2.2035380215162
106	18760	56	1.7248737517077
106	19536	57	2.3358546381844
106	20312	58	2.2703062922685
106	21174	59	2.0082886496992
106	22036	60	2.3396276796223
106	22902	61	2.2571205173967
106	23768	62	2.1630126505169
106	24634	63	2.4149379488606
106	25508	64	1.8445883993986
106	26395	65	2.4743965944328
106	27282	66	1.997427666692
106	28177	67	2.3400320533654
106	29068	68	2.1447552283356
106	29959	69	1.9827130491201
106	30850	70	2.3780032333932
106	31745	71	2.2921363996447
106	32644	72	2.0422223251503
106	33543	73	2.3169650575059
106	34442	74	1.974189936061
106	35345	75	2.2369286691387
106	36252	76	2.1928608312788
106	37151	77	2.2876662561545
106	38054	78	2.4502995163231
106	38953	79	1.8839141707535
106	39856	80	2.2500063899458
106	40763	81	2.1220309191253
106	41674	82	2.4848302052342
106	42585	83	2.1160131121891
106	43496	84	2.0624352964132
106	44407	85	2.3522523552675
106	45318	86	2.0074834326555
106	46229	87	2.2029836141058
106	47132	88	2.4985919952448
106	48084	89	2.0284918651071
106	49040	90	2.2942612903275
106	49996	91	2.2701998848234
106	50948	92	1.982418083845
106	51904	93	1.9778344865012
106	52873	94	2.5867294245932
106	53842	95	2.279782960418
106	54807	96	1.8086314798567
106	55772	97	2.2503880068586
106	56773	98	2.3153046961358
106	57782	99	2.1757643149947
106	58824	100	1.9579394427786
106	59866	101	2.2599574142556
106	60904	102	2.4513432034697
106	61946	103	2.3196428929659
106	63053	104	1.8435243112222
106	64160	105	2.3510259646669
106	65267	106	2.112569213819
106	66370	107	2.4317720982911
106	67469	108	1.929260223908
106	68552	109	2.0672497427627
106	69639	110	2.2886551843041
106	70726	111	2.3925253181327
106	71832	112	1.9704308698948
106	72942	113	2.5853706669009
106	74068	114	2.180837239537
106	75190	115	1.7756847913227
106	76308	116	2.3783235948138
106	77426	117	2.0069588367861
106	78589	118	2.4955647328196
106	79756	119	2.0502653718694
106	80919	120	2.2807036145217
106	82111	121	2.262075519949
106	83324	122	1.9023302152622
106	84541	123	2.3449951968897
106	85799	124	2.1293810389182
106	87057	125	2.1605830559833
106	88311	126	2.4540560147479
106	89557	127	2.1415323610714
106	90803	128	2.1069732825421
106	92106	129	2.206034833001
106	93405	130	2.3364545995827
106	94745	131	0.973
106	96093	132	0.973
106	97449	133	0.973
106	98813	134	0.973
106	100198	135	0.973
106	101587	136	0.973
106	102976	137	0.973
106	104365	138	1.1253196544185
106	105758	139	0.973
106	107155	140	0.973
106	108645	141	0.973
106	110162	142	0.973
106	111679	143	0.973
106	113200	144	0.973
106	114721	145	0.973
106	116246	146	0.973
106	117806	147	0.973
106	119354	148	0.973
106	120902	149	0.973
106	122446	150	0.973
106	124002	151	0.973
106	125558	152	0.973
106	127114	153	0.973
106	128674	154	0.973
106	130254	155	0.973
106	131863	156	0.973
106	133468	157	0.973
106	135069	158	0.973
106	136686	159	0.973
106	138321	160	0.973
106	139964	161	0.973
106	141636	162	0.973
106	143308	163	0.973
106	144992	164	0.973
106	146684	165	0.973
106	148372	166	0.973
106	150060	167	0.973
106	151756	168	0.973
106	153452	169	0.973
106	155156	170	0.973
106	156868	171	0.973
106	158592	172	0.973
106	160324	173	0.973
106	162060	174	0.973
106	163792	175	0.973
106	165520	176	0.973
106	167179	177	0.973
106	168838	178	0.973
106	170518	179	0.973
106	172210	180	0.973
106	173894	181	0.973
106	175607	182	0.973
106	177332	183	0.973
106	179077	184	0.973
106	180867	185	0.973
106	182657	186	0.973
106	184447	187	0.973
106	186249	188	0.973
106	188063	189	0.973
106	189889	190	0.973
106	191727	191	0.973
106	193606	192	0.973
106	195493	193	2.5563322074807
106	197458	194	3.4714612128174
106	199419	195	4.1631006869346
106	201408	196	6.1873032334766
106	203440	197	6.8044501641369
106	205488	198	7.5079175522587
106	207605	199	9.1820918310797
106	209823	200	6.1586504938698
106	212035	201	2.3226860402402
106	214308	202	1.9306564254441
106	216606	203	2.4248831734729
106	218896	204	2.1794589102716
106	221194	205	1.8858858566459
106	223533	206	2.5362203268409
106	225909	207	2.0932215289382
106	228281	208	1.9210300915241
106	230698	209	2.5996091871494
106	233123	210	2.2593020701394
106	235532	211	2.1137816015333
106	237949	212	2.2854508251239
106	240374	213	2.0933903254415
106	242795	214	2.2462919257054
106	245220	215	2.0057356090405
106	247653	216	2.0447485561024
106	250145	217	2.1455965075779
106	252661	218	2.4287874792431
106	255232	219	2.1479588605061
106	257827	220	2.0310180209463
106	260426	221	2.3853692126209
106	263025	222	2.3024382728329
106	265636	223	2.0687368067796
106	268243	224	2.3124898609012
106	270854	225	1.9874942423778
106	273603	226	2.1202506340098
106	276356	227	2.6172845160855
106	279113	228	1.7793847403319
106	281999	229	2.2986759273556
105	9636	42	1.8295339031168
105	10206	43	2.1358724396001
105	10785	44	1.8475952428672
105	11401	45	1.905846350654
105	12017	46	1.8729879674665
105	12646	47	1.9906546372348
105	13275	48	-0.03232438437175
105	13904	49	0.017137724214699
105	14533	50	-0.014336254943629
105	15162	51	-0.018715746300295
105	15836	52	0.01761583338026
105	16514	53	0.035875086456072
105	17192	54	0.00061763031408191
105	17976	55	-0.00010814808076276
105	18760	56	-0.12526614552829
105	19536	57	0.038152923150919
105	20312	58	0.019891289286315
105	21174	59	-0.049118769434282
105	22036	60	0.0388475903566
105	22902	61	0.016163256014698
105	23768	62	-0.0088318995875305
105	24634	63	0.056870812484993
105	25508	64	-0.093454314107074
105	26395	65	0.073489725934341
105	27282	66	-0.052869782794732
105	28177	67	0.03798146582907
105	29068	68	-0.013975422924849
105	29959	69	-0.055961441183463
105	30850	70	0.048878506568727
105	31745	71	0.025008019828237
105	32644	72	-0.040856400944758
105	33543	73	0.031957159664016
105	34442	74	-0.05843414630508
105	35345	75	0.01194630666636
105	36252	76	8.5213151759689e-05
105	37151	77	0.024794728732669
105	38054	78	0.066166971395724
105	38953	79	-0.083246003265959
105	39856	80	0.014750683146994
105	40763	81	-0.019074708786793
105	41674	82	0.075822886358946
105	42585	83	-0.022264687120915
105	43496	84	-0.03561798923416
105	44407	85	0.040895887133665
105	45318	86	-0.050131178793963
105	46229	87	0.0023626548796898
105	47132	88	0.078996615356299
105	48084	89	-0.045480186559725
105	49040	90	0.025005555257668
105	49996	91	0.017987160428893
105	50948	92	-0.05744963467354
105	51904	93	-0.057139878091402
105	52873	94	0.10309361146297
105	53842	95	0.020269520764705
105	54807	96	-0.1032251248532
105	55772	97	0.015194080262445
105	56773	98	0.031612600439695
105	57782	99	-0.0056599356979135
105	58824	100	-0.062470150347799
105	59866	101	0.018346573454327
105	60904	102	0.067495349387173
105	61946	103	0.031173343227712
105	63053	104	-0.093878196878359
105	64160	105	0.041320698980707
105	65267	106	-0.022036985740996
105	66370	107	0.061617615630384
105	67469	108	-0.07106160385767
105	68552	109	-0.033007093302439
105	69639	110	0.02583074872382
105	70726	111	0.05200411525322
105	71832	112	-0.059592454792
105	72942	113	0.10212996621616
105	74068	114	-0.0058789710514251
105	75190	115	-0.11165867056465
105	76308	116	0.049073760518803
105	77426	117	-0.049328184714541
105	78589	118	0.07948473387165
105	79756	119	-0.03880625555059
105	80919	120	0.02240795568796
105	82111	121	0.016871354880276
105	83324	122	-0.077584777909797
105	84541	123	0.040341398466845
105	85799	124	-0.017096374789254
105	87057	125	-0.0084471768676302
105	88311	126	0.068151143179275
105	89557	127	-0.015154054092708
105	90803	128	-0.023732709481846
105	92106	129	0.0027960584452362
105	93405	130	0.036616746219806
105	94745	131	-1.7989330690171
105	96093	132	-3.3661243567867
105	97449	133	-3.1100658268939
105	98813	134	-2.6023032878035
105	100198	135	-2.0881742460753
105	101587	136	-1.2779745291774
105	102976	137	-0.73348469354462
105	104365	138	-0.058342827977373
105	105758	139	-0.44797039831232
105	107155	140	0
105	108645	141	0
105	110162	142	0
105	111679	143	0
105	113200	144	0
105	114721	145	0
105	116246	146	0
105	117806	147	0
105	119354	148	0
105	120902	149	0
105	122446	150	0
105	124002	151	0
105	125558	152	0
105	127114	153	0
105	128674	154	0
105	130254	155	0
105	131863	156	0
105	133468	157	0
105	135069	158	0
105	136686	159	0
105	138321	160	0
105	139964	161	0
105	141636	162	0
105	143308	163	0
105	144992	164	0
105	146684	165	0
105	148372	166	0
105	150060	167	0
105	151756	168	0
105	153452	169	0
105	155156	170	0
105	156868	171	0
105	158592	172	0
105	160324	173	0
105	162060	174	0
105	163792	175	0
105	165520	176	0
105	167179	177	0
105	168838	178	0
105	170518	179	0
105	172210	180	0
105	173894	181	0
105	175607	182	0
105	177332	183	0
105	179077	184	0
105	180867	185	0
105	182657	186	0
105	184447	187	0
105	186249	188	0
105	188063	189	0
105	189889	190	0
105	191727	191	0
105	193606	192	0
105	195493	193	2.3507160449526
105	197458	194	2.0294942315109
105	199419	195	1.8262447805796
105	201408	196	2.2605573694687
105	203440	197	2.0124704219121
105	205488	198	1.8877892209683
105	207605	199	2.0443319734
105	209823	200	1.0619038390646
105	212035	201	0.032193707316184
105	214308	202	-0.070865963173565
105	216606	203	0.059920620180201
105	218896	204	-0.0056311286590063
105	221194	205	-0.082194054536521
105	223533	206	0.0896685317019
105	225909	207	-0.028136229380035
105	228281	208	-0.072445369686465
105	230698	209	0.10642190537183
105	233123	210	0.014864013832993
105	235532	211	-0.023366088650654
105	237949	212	0.021903309430927
105	240374	213	-0.028632658878342
105	242795	214	0.011956318437587
105	245220	215	-0.051046561680268
105	247653	216	-0.039458004450426
105	250145	217	-0.011943437322042
105	252661	218	0.06220981526887
105	255232	219	-0.01278615676798
105	257827	220	-0.043001372753642
105	260426	221	0.050727820168248
105	263025	222	0.027563886961435
105	265636	223	-0.034101880369708
105	268243	224	0.030379624015186
105	270854	225	-0.055250414041803
105	273603	226	-0.018973610028624
105	276356	227	0.11070754569955
105	279113	228	-0.11079374834197
105	281999	229	0.028175587141886
98	9079	41	3.9310254771098
98	9636	42	5.7605593802266
98	10206	43	7.8964318198267
98	10785	44	9.7440270626939
98	11401	45	11.649873413348
98	12017	46	13.522861380814
98	12646	47	15.513516018049
98	13275	48	15.481191633677
98	13904	49	15.498329357892
98	14533	50	15.483993102948
98	15162	51	15.465277356648
98	15836	52	15.482893190028
98	16514	53	15.518768276485
98	17192	54	15.519385906799
98	17976	55	15.519277758718
98	18760	56	15.39401161319
98	19536	57	15.43216453634
98	20312	58	15.452055825627
98	21174	59	15.402937056192
98	22036	60	15.441784646549
98	22902	61	15.457947902564
98	23768	62	15.449116002976
98	24634	63	15.505986815461
98	25508	64	15.412532501354
98	26395	65	15.486022227289
98	27282	66	15.433152444494
98	28177	67	15.471133910323
98	29068	68	15.457158487398
98	29959	69	15.401197046215
98	30850	70	15.450075552783
98	31745	71	15.475083572612
98	32644	72	15.434227171667
98	33543	73	15.466184331331
98	34442	74	15.407750185026
98	35345	75	15.419696491692
98	36252	76	15.419781704844
98	37151	77	15.444576433576
98	38054	78	15.510743404972
98	38953	79	15.427497401706
98	39856	80	15.442248084853
98	40763	81	15.423173376066
98	41674	82	15.498996262425
98	42585	83	15.476731575304
98	43496	84	15.44111358607
98	44407	85	15.482009473204
98	45318	86	15.43187829441
98	46229	87	15.43424094929
98	47132	88	15.513237564646
98	48084	89	15.467757378086
98	49040	90	15.492762933344
98	49996	91	15.510750093773
98	50948	92	15.453300459099
98	51904	93	15.396160581008
98	52873	94	15.499254192471
98	53842	95	15.519523713236
98	54807	96	15.416298588382
98	55772	97	15.431492668645
98	56773	98	15.463105269085
98	57782	99	15.457445333387
98	58824	100	15.394975183039
98	59866	101	15.413321756493
98	60904	102	15.48081710588
98	61946	103	15.511990449108
98	63053	104	15.41811225223
98	64160	105	15.45943295121
98	65267	106	15.437395965469
98	66370	107	15.4990135811
98	67469	108	15.427951977242
98	68552	109	15.39494488394
98	69639	110	15.420775632663
98	70726	111	15.472779747917
98	71832	112	15.413187293125
98	72942	113	15.515317259341
98	74068	114	15.509438288289
98	75190	115	15.397779617725
98	76308	116	15.446853378244
98	77426	117	15.397525193529
98	78589	118	15.477009927401
98	79756	119	15.43820367185
98	80919	120	15.460611627538
98	82111	121	15.477482982418
98	83324	122	15.399898204509
98	84541	123	15.440239602975
98	85799	124	15.423143228186
98	87057	125	15.414696051318
98	88311	126	15.482847194498
98	89557	127	15.467693140405
98	90803	128	15.443960430923
98	92106	129	15.446756489368
98	93405	130	15.483373235588
98	94745	131	13.684440166571
98	96093	132	10.318315809784
98	97449	133	7.2082499828906
98	98813	134	4.6059466950871
98	100198	135	2.5177724490117
98	101587	136	1.2397979198343
98	102976	137	0.50631322628969
98	104365	138	0.44797039831232
98	105758	139	0
98	107155	140	0
98	108645	141	0
98	110162	142	0
98	111679	143	0
98	113200	144	0
98	114721	145	0
98	116246	146	0
98	117806	147	0
98	119354	148	0
98	120902	149	0
98	122446	150	0
98	124002	151	0
98	125558	152	0
98	127114	153	0
98	128674	154	0
98	130254	155	0
98	131863	156	0
98	133468	157	0
98	135069	158	0
98	136686	159	0
98	138321	160	0
98	139964	161	0
98	141636	162	0
98	143308	163	0
98	144992	164	0
98	146684	165	0
98	148372	166	0
98	150060	167	0
98	151756	168	0
98	153452	169	0
98	155156	170	0
98	156868	171	0
98	158592	172	0
98	160324	173	0
98	162060	174	0
98	163792	175	0
98	165520	176	0
98	167179	177	0
98	168838	178	0
98	170518	179	0
98	172210	180	0
98	173894	181	0
98	175607	182	0
98	177332	183	0
98	179077	184	0
98	180867	185	0
98	182657	186	0
98	184447	187	0
98	186249	188	0
98	188063	189	0
98	189889	190	0
98	191727	191	0
98	193606	192	0
98	195493	193	2.3507160449526
98	197458	194	4.3802102764635
98	199419	195	6.2064550570431
98	201408	196	8.4670124265118
98	203440	197	10.479482848424
98	205488	198	12.367272069392
98	207605	199	14.411604042792
98	209823	200	15.473507881857
98	212035	201	15.505701589173
98	214308	202	15.434835625999
98	216606	203	15.49475624618
98	218896	204	15.489125117521
98	221194	205	15.406931062984
98	223533	206	15.496599594686
98	225909	207	15.468463365306
98	228281	208	15.39601799562
98	230698	209	15.502439900991
98	233123	210	15.517303914824
98	235532	211	15.493937826174
98	237949	212	15.515841135605
98	240374	213	15.487208476726
98	242795	214	15.499164795164
98	245220	215	15.448118233484
98	247653	216	15.408660229033
98	250145	217	15.396716791711
98	252661	218	15.45892660698
98	255232	219	15.446140450212
98	257827	220	15.403139077458
98	260426	221	15.453866897627
98	263025	222	15.481430784588
98	265636	223	15.447328904218
98	268243	224	15.477708528234
98	270854	225	15.422458114192
98	273603	226	15.403484504163
98	276356	227	15.514192049863
98	279113	228	15.403398301521
98	281999	229	15.431573888663
93	8522	40	3418.3409600691
93	9079	41	3418.3409600691
93	9636	42	3417.0973444103
93	10206	43	3415.0881595686
93	10785	44	3412.2417489004
93	11401	45	3408.3986535977
93	12017	46	3403.7584278087
93	12646	47	3398.3040610634
93	13275	48	3392.05063418
93	13904	49	3385.3803551574
93	14533	50	3378.1623350065
93	15162	51	3370.9471450526
93	15836	52	3363.7132678529
93	16514	53	3356.4326427923
93	17192	54	3348.8440089788
93	17976	55	3341.1418049016
93	18760	56	3333.7072578208
93	19536	57	3326.2895952106
93	20312	58	3318.8691774025
93	21174	59	3311.4412808585
93	22036	60	3303.6456370549
93	22902	61	3295.6358879882
93	23768	62	3287.6254611841
93	24634	63	3279.6286110652
93	25508	64	3271.6254710737
93	26395	65	3263.6200278625
93	27282	66	3255.6157281919
93	28177	67	3247.6147976815
93	29068	68	3239.6000753654
93	29959	69	3231.5916502246
93	30850	70	3222.7926675692
93	31745	71	3213.779420097
93	32644	72	3204.7760276858
93	33543	73	3195.7762745055
93	34442	74	3186.7752783951
93	35345	75	3177.7739870289
93	36252	76	3168.7762400503
93	37151	77	3159.7760076936
93	38054	78	3150.7904618126
93	38953	79	3141.7401219219
93	39856	80	3132.5777520443
93	40763	81	3123.4211994597
93	41674	82	3114.2263552829
93	42585	83	3104.8354560007
93	43496	84	3095.437362333
93	44407	85	3086.0185728488
93	45318	86	3076.3020504762
93	46229	87	3066.5815457355
93	47132	88	3056.8609520985
93	48084	89	3047.1381269512
93	49040	90	3037.4168551466
93	49996	91	3027.5036603769
93	50948	92	3017.5710636328
93	51904	93	3007.6108687582
93	52873	94	2997.6082219315
93	53842	95	2987.6631678633
93	54807	96	2977.6218930144
93	55772	97	2967.4405798752
93	56773	98	2957.2128089287
93	57782	99	2946.87488471
93	58824	100	2936.652139179
93	59866	101	2926.4714304296
93	60904	102	2916.3096259611
93	61946	103	2906.1379745502
93	63053	104	2895.9663705513
93	64160	105	2885.7578152239
93	65267	106	2875.4278656545
93	66370	107	2865.1063248528
93	67469	108	2854.798212866
93	68552	109	2844.8162015324
93	69639	110	2835.0630780552
93	70726	111	2825.2982830177
93	71832	112	2815.267140085
93	72942	113	2805.0758650562
93	74068	114	2794.8918146037
93	75190	115	2784.698865048
93	76308	116	2774.5467551243
93	77426	117	2764.4617093372
93	78589	118	2754.3829301128
93	79756	119	2744.2879869849
93	80919	120	2734.1951761815
93	82111	121	2724.1123333888
93	83324	122	2714.0547297521
93	84541	123	2703.994272887
93	85799	124	2693.9342038908
93	87057	125	2683.7787721764
93	88311	126	2673.6016703391
93	89557	127	2663.4157220768
93	90803	128	2653.2363267554
93	92106	129	2642.9903959327
93	93405	130	2632.6494538534
93	94745	131	2622.0641255547
93	96093	132	2612.1947966499
93	97449	133	2604.3486160725
93	98813	134	2598.6195034715
93	100198	135	2594.8251074961
93	101587	136	2592.6054769698
93	102976	137	2591.4690388225
93	104365	138	2590.9682536738
93	105758	139	2590.6832814434
93	107155	140	2590.6690726844
93	108645	141	2590.6690726844
93	110162	142	2590.6690726844
93	111679	143	2590.6690726844
93	113200	144	2590.6690726844
93	114721	145	2590.6690726844
93	116246	146	2590.6690726844
93	117806	147	2590.6690726844
[...]
404	740315	340	7868.7794877852
404	745549	341	7839.9250839709
404	750756	342	7815.5573264163
404	755955	343	7795.6762932307
404	761154	344	7778.7039815941
404	766381	345	7761.769288397
404	771697	346	7744.8573396967
404	776926	347	7727.9317914317
404	782151	348	7711.0140970975
404	787436	349	7694.0923292383
404	792886	350	7677.1618729931
404	798344	351	7660.2756050876
404	803887	352	7643.3723303146
404	809446	353	7626.4470551384
404	815013	354	7609.5444966539
404	820560	355	7592.6537388572
404	826151	356	7575.7383901101
404	831738	357	7558.80723492
404	837319	358	7541.8671501212
404	842892	359	7524.9329817485
404	848445	360	7508.0081331234
404	854055	361	7491.0798491773
404	859500	362	7474.1606469953
404	865158	363	7457.234451852
404	870739	364	7440.3083526216
404	876340	365	7423.3862950046
404	881938	366	7406.4715287642
404	887512	367	7389.5300138111
404	893147	368	7372.6035079431
404	898796	369	7355.773210027
404	904461	370	7339.2031716166
404	910106	371	7322.9809157101
404	915751	372	7307.0987270401
404	921368	373	7291.5827877314
404	927122	374	7276.669884069
404	932892	375	7261.8110626611
404	938670	376	7246.9480879414
404	944456	377	7232.0940944266
404	950269	378	7217.1685600652
404	956126	379	7202.1301324759
404	961999	380	7186.2023622464
404	967820	381	7169.8022469056
404	973649	382	7153.0409923522
404	979567	383	7136.1092924606
404	985465	384	7119.2084561392
404	991375	385	7102.4521655206
404	997337	386	7086.042263601
404	1003295	387	7069.9106588577
404	1009164	388	7054.6820307149
404	1015028	389	7039.6621980869
404	1020909	390	7025.3389791834
404	1026778	391	7012.1238625433
404	1032623	392	6999.8335304432
404	1038492	393	6988.8322869798
404	1044502	394	6978.231918423
404	1050524	395	6969.3940336546
404	1056542	396	6961.0440868427
404	1062681	397	6953.0552715105
404	1068860	398	6945.8976088965
404	1075027	399	6939.0792838802
404	1081206	400	6932.2546751908
404	1087441	401	6925.4220428295
404	1093704	402	6917.6002149301
404	1099979	403	6909.4537862014
404	1106214	404	6900.8109883994
404	1112429	405	6893.7206864291
404	1118628	406	6888.1147013422
404	1124904	407	6883.7061494282
404	1131224	408	6880.836124409
404	1137580	409	6876.8225928666
404	1143960	410	6871.3142189906
404	1150332	411	6864.311976688
404	1156700	412	6855.8126388246
404	1163056	413	6845.7793665739
404	1169452	414	6833.9604639655
404	1175933	415	6821.0635771339
404	1182426	416	6806.9992014927
404	1188927	417	6792.628789289
404	1195448	418	6778.2097439454
404	1201945	419	6763.6904568504
404	1208434	420	6748.7738902992
404	1214996	421	6733.3712238267
404	1221558	422	6717.938261334
404	1228148	423	6702.3816378934
404	1234720	424	6686.7582537412
404	1241324	425	6670.9294457566
404	1247985	426	6655.1025174226
404	1254654	427	6639.2966472284
404	1261359	428	6623.5614453154
404	1268028	429	6608.1258371748
404	1274778	430	6592.7313955454
404	1281560	431	6576.5521640153
404	1288313	432	6558.4565841743
404	1295090	433	6538.6229574671
404	1301923	434	6516.9943401101
404	1308764	435	6493.3784557178
404	1315569	436	6469.4144325101
404	1322434	437	6441.8340185652
404	1329267	438	6412.3521390935
404	1336096	439	6381.8789124328
404	1342961	440	6351.3999147756
404	1349903	441	6320.6935576327
404	1356857	442	6289.9445318085
404	1363810	443	6259.1958244512
404	1370767	444	6228.2288415758
404	1377599	445	6197.2747166667
404	1384431	446	6166.2204402994
404	1391268	447	6135.042468724
404	1398000	448	6103.8562714536
404	1404732	449	6072.5923621782
404	1411462	450	6041.3397973956
404	1418176	451	6010.0735613067
404	1424957	452	5978.682497333
404	1431742	453	5947.2803916714
404	1438523	454	5915.8671828937
404	1445267	455	5884.4367147241
404	1452039	456	5852.9709338881
404	1458795	457	5821.4866283097
404	1465535	458	5790.0248115144
404	1472222	459	5758.5697879039
404	1478885	460	5727.093772813
404	1485698	461	5695.6773686619
404	1492499	462	5664.2269711237
404	1499574	463	5632.8074093058
404	1506613	464	5601.4537698124
404	1513700	465	5570.1020444525
404	1520795	466	5538.7210827339
404	1527896	467	5507.3660924787
404	1535045	468	5476.0160156837
404	1542190	469	5444.7771868909
404	1549166	470	5413.5451630493
404	1556259	471	5382.3136657812
404	1563268	472	5351.0758666047
404	1570253	473	5319.8369328028
404	1577258	474	5288.7327598999
404	1584683	475	5257.6306275009
404	1591988	476	5226.5321545004
404	1599212	477	5195.4507429796
404	1606448	478	5164.7520983033
404	1613880	479	5133.6422129209
404	1621333	480	5102.5114514137
404	1629031	481	5071.4963888514
404	1636737	482	5040.4755933797
404	1644391	483	5009.4289960887
404	1652051	484	4978.3690123467
404	1659727	485	4947.3213344302
404	1667395	486	4916.2586186217
404	1675069	487	4885.2257632791
404	1682737	488	4854.170749298
404	1690389	489	4823.1469717342
404	1698037	490	4792.1365528239
404	1705721	491	4761.1211299827
404	1713393	492	4730.1137280488
404	1721031	493	4699.1028652252
404	1728675	494	4668.0663910915
404	1736363	495	4637.0392162954
404	1744043	496	4606.0232608758
404	1751688	497	4575.0319248323
404	1759335	498	4544.0013116989
404	1767021	499	4512.9752472525
404	1774773	500	4481.9419870113
404	1782477	501	4450.9362970747
404	1790177	502	4419.9336495258
404	1797752	503	4388.9283435256
404	1805390	504	4358.0478489674
404	1813187	505	4327.032592972
404	1820998	506	4296.0380800885
404	1828785	507	4265.0415108462
404	1836552	508	4234.0281891622
404	1844295	509	4203.0078326312
404	1852025	510	4171.9831142174
404	1859763	511	4140.9525924286
404	1867525	512	4109.9259905504
404	1875327	513	4078.9237004264
404	1883484	514	4047.8989960709
404	1891665	515	4016.8775771143
404	1899919	516	3985.8545930697
404	1908143	517	3954.8037611198
404	1916342	518	3923.8003674691
404	1924551	519	3892.7714017489
404	1932715	520	3861.773686302
404	1940883	521	3830.7559026
404	1949025	522	3799.730183291
404	1957177	523	3768.7137516944
404	1965393	524	3737.4072972158
404	1973597	525	3706.5152483409
404	1981720	526	3675.3528635945
404	1989726	527	3644.1971979499
404	1997756	528	3612.8853271224
404	2005776	529	3581.3706912732
404	2013793	530	3549.8848463512
404	2021806	531	3518.3842947413
404	2029863	532	3486.8990992877
404	2037847	533	3455.4175655808
404	2045795	534	3423.9200373517
404	2053763	535	3392.4869239875
404	2061759	536	3361.1549936973
404	2069795	537	3330.3698656279
404	2077817	538	3299.3440411595
404	2085899	539	3268.5287394899
404	2093945	540	3237.9147331267
404	2101945	541	3207.6484310273
404	2109993	542	3177.545153988
404	2118021	543	3147.7664793177
404	2125924	544	3118.2352731986
404	2133853	545	3088.851726046
404	2141755	546	3059.998214293
404	2149641	547	3031.8053536322
404	2157600	548	3004.0416535252
404	2165557	549	2976.6164381659
404	2173469	550	2949.7775392908
404	2181379	551	2922.9577982975
404	2189281	552	2896.9674705131
404	2197233	553	2871.292089185
404	2205288	554	2846.2029827529
404	2213343	555	2821.8433078727
404	2221408	556	2797.8386339296
404	2229451	557	2774.3787296365
404	2237444	558	2751.9440137086
404	2245449	559	2729.343447376
404	2253371	560	2706.9117211855
404	2261269	561	2685.7676278449
404	2269145	562	2664.9127821364
404	2277019	563	2644.2921741983
404	2284919	564	2623.9609197576
404	2292811	565	2604.4456112153
404	2300683	566	2585.1946452766
404	2308696	567	2566.0269042625
404	2316637	568	2546.9246081608
404	2324550	569	2528.5716282924
404	2332453	570	2511.2538589236
404	2340370	571	2494.3545527285
404	2348267	572	2477.6629108813
404	2356237	573	2460.980003778
404	2364128	574	2445.0219727512
404	2372015	575	2429.4687775756
404	2379910	576	2414.2024611982
404	2387793	577	2399.8023688348
404	2395678	578	2385.4826873656
404	2404000	579	2371.232458696
404	2412412	580	2358.0089322121
404	2420856	581	2345.0285302336
404	2429497	582	2332.6335167635
404	2438168	583	2320.3830226071
404	2446928	584	2308.6273268377
404	2455672	585	2297.5051396254
404	2464444	586	2286.929683381
404	2473218	587	2276.7274566631
404	2481928	588	2266.9774393157
404	2490847	589	2257.6409337028
404	2499724	590	2248.6282168241
404	2508609	591	2240.0058037184
404	2517513	592	2232.2365701139
404	2526507	593	2224.6580807659
404	2535666	594	2217.9596312896
404	2544826	595	2211.7616758264
404	2554015	596	2205.8881254246
404	2563407	597	2200.4378403087
404	2572760	598	2195.3190130317
404	2582109	599	2190.8905266487
404	2591432	600	2186.7338011106
404	2600715	601	2183.3406930237
404	2610050	602	2180.1713686441
404	2619333	603	2177.5041566226
404	2628590	604	2175.647061508
404	2637811	605	2174.1336474502
404	2646807	606	2172.8664372397
404	2655851	607	2171.5995458213
404	2664909	608	2171.0716939225
404	2673878	609	2171.0752932246
404	2682865	610	2171.0788917091
404	2691890	611	2171.2452450732
404	2700954	612	2171.4204494687
404	2710034	613	2171.5955982444
404	2719094	614	2171.7706854893
404	2728142	615	2171.9458333665
404	2737158	616	2172.1209321536
404	2746220	617	2172.2959939231
404	2755308	618	2172.4711696047
404	2764499	619	2172.6462632657
403	412249	268	3331.3962352101
403	416040	269	3331.3962352101
403	419851	270	3346.5864524219
403	423678	271	3363.4440911147
403	427529	272	3381.9053913382
403	431350	273	3401.8612355912
403	435212	274	3423.4224398107
403	439086	275	3446.2359492207
403	442988	276	3470.5451066046
403	446902	277	3495.9390395643
403	450836	278	3522.7138294325
403	454794	279	3548.5292052896
403	458756	280	3573.9626993382
403	462722	281	3598.9807188152
403	466692	282	3623.4941553751
403	470646	283	3647.6693264164
403	474580	284	3671.1657811733
403	478615	285	3694.262535764
403	482646	286	3716.3463683735
403	486679	287	3737.9580497846
403	490756	288	3759.0384709207
403	494841	289	3779.1508143362
403	498952	290	3799.037602035
403	503245	291	3818.2086216009
403	507542	292	3836.3745236022
403	511847	293	3854.1661338451
403	516183	294	3871.2367633511
403	520584	295	3887.5625442315
403	524989	296	3903.4076948554
403	529402	297	3918.4689713741
403	533843	298	3932.5120673739
403	538312	299	3946.0665490567
403	542833	300	3959.3367957669
403	547358	301	3971.8442915801
403	551892	302	3983.603810489
403	556551	303	3994.4865314089
403	561251	304	4004.654641662
403	566068	305	4014.4618845969
403	570901	306	4023.2967812378
403	575762	307	4031.7093658308
403	580611	308	4039.2519326837
403	585444	309	4046.1878532841
403	590265	310	4052.8041139335
403	595086	311	4059.4216431583
403	599915	312	4065.31200396
403	604740	313	4069.6647991179
403	609553	314	4074.0183154871
403	614305	315	4078.3709711093
403	619000	316	4082.613413538
403	623937	317	4085.3964647527
403	628922	318	4087.7684813917
403	633911	319	4086.7382166274
403	638801	320	4089.1069610302
403	643691	321	4090.9574747425
403	648601	322	4092.5489040949
403	653523	323	4093.4484588362
403	658453	324	4093.7750622209
403	663375	325	4094.1014242937
403	668366	326	4094.3022208842
403	673365	327	4094.1021961885
403	678384	328	4093.9022499037
403	683427	329	4093.7021465619
403	688534	330	4092.5579033574
403	693649	331	4091.3527365379
403	698764	332	4093.4491133641
403	703895	333	4092.2427479886
403	709046	334	4091.0370974929
403	714201	335	4089.8312702364
403	719423	336	4088.6258203706
403	724665	337	4087.4196333863
403	729891	338	4086.2138611736
403	735113	339	4085.0083410757
403	740315	340	4086.3934624653
403	745549	341	4084.5440124121
403	750756	342	4082.9821381555
403	755955	343	4081.7470840195
403	761154	344	4082.2098724997
403	766381	345	4082.7882529843
403	771697	346	4083.2870489026
403	776926	347	4082.8716680444
403	782151	348	4082.4564799345
403	787436	349	4082.0411918537
403	792886	350	4081.6256905455
403	798344	351	4080.6014126219
403	803887	352	4079.567603683
403	809446	353	4078.5324491933
403	815013	354	4077.9643938623
403	820560	355	4077.4306120511
403	826151	356	4076.9097092838
403	831738	357	4076.3883197621
403	837319	358	4075.866655256
403	842892	359	4075.3451729443
403	848445	360	4074.8239776313
403	854055	361	4074.3026765287
403	859500	362	4073.7816550961
403	865158	363	4073.2604183175
403	870739	364	4073.1370155981
403	876340	365	4073.7490113362
403	881938	366	4074.3107341717
403	887512	367	4074.8733453059
403	893147	368	4075.435458003
403	898796	369	4077.3519828712
403	904461	370	4080.8314356214
403	910106	371	4085.6362361124
403	915751	372	4091.3766112846
403	921368	373	4098.1802820169
403	927122	374	4106.2178951688
403	932892	375	4114.3339862171
403	938670	376	4122.452345861
403	944456	377	4130.5657998482
403	950269	378	4138.5913854136
403	956126	379	4146.3224512915
403	961999	380	4151.7884099919
403	967820	381	4155.9379814677
403	973649	382	4158.3712530635
403	979567	383	4158.3886046465
403	985465	384	4157.5392805239
403	991375	385	4155.2392183237
403	997337	386	4151.1991497122
403	1003295	387	4146.1039390868
403	1009164	388	4138.6988056758
403	1015028	389	4130.9073309917
403	1020909	390	4121.8790669469
403	1026778	391	4111.2999352504
403	1032623	392	4099.6509675681
403	1038492	393	4086.8159641059
403	1044502	394	4073.6089475434
403	1050524	395	4059.1719002644
403	1056542	396	4044.4698336168
403	1062681	397	4029.5318433038
403	1068860	398	4014.2015444009
403	1075027	399	3998.7227858332
403	1081206	400	3983.2297622578
403	1087441	401	3967.718523581
403	1093704	402	3952.7166864267
403	1099979	403	3937.8783710884
403	1106214	404	3924.8332667218
403	1112429	405	3914.8523349441
403	1118628	406	3907.8653506913
403	1124904	407	3903.6090803633
403	1131224	408	3900.8381926505
403	1137580	409	3897.0414577537
403	1143960	410	3891.9683385788
403	1150332	411	3885.5193918493
403	1156700	412	3877.6916454291
403	1163056	413	3868.4511713822
403	1169452	414	3858.0704608014
403	1175933	415	3847.1235338926
403	1182426	416	3837.7728392318
403	1188927	417	3828.7939296686
403	1195448	418	3819.9147321489
403	1201945	419	3811.1701615121
403	1208434	420	3803.1813127473
403	1214996	421	3796.0797420436
403	1221558	422	3789.1587691254
403	1228148	423	3782.5217653711
403	1234720	424	3775.9945213647
403	1241324	425	3769.9981027935
403	1247985	426	3764.0023962893
403	1254654	427	3757.9035109864
403	1261359	428	3751.6780782364
403	1268028	429	3744.6910362951
403	1274778	430	3737.6597722109
403	1281560	431	3731.4130583689
403	1288313	432	3725.2764733991
403	1295090	433	3718.5504808298
403	1301923	434	3711.2157698475
403	1308764	435	3703.6148262902
403	1315569	436	3693.0112134036
403	1322434	437	3684.8241357356
403	1329267	438	3676.4166504666
403	1336096	439	3668.5973330715
403	1342961	440	3660.77653486
403	1349903	441	3653.9330933372
403	1356857	442	3647.3478530332
403	1363810	443	3640.7637334941
403	1370767	444	3635.0855574871
403	1377599	445	3629.4097391458
403	1384431	446	3624.2823766632
403	1391268	447	3619.996519238
403	1398000	448	3615.8934288629
403	1404732	449	3612.2948769425
403	1411462	450	3608.6976308008
403	1418176	451	3605.0988110585
403	1424957	452	3602.8726105086
403	1431742	453	3600.7891937346
403	1438523	454	3599.0911554528
403	1445267	455	3597.8579200878
403	1452039	456	3597.8219149574
403	1458795	457	3597.8035527467
403	1465535	458	3597.7852036518
403	1472222	459	3597.7668585189
403	1478885	460	3598.6059170969
403	1485698	461	3599.9538257582
403	1492499	462	3601.3031928926
403	1499574	463	3603.1335563384
403	1506613	464	3605.7732166384
403	1513700	465	3608.4127157877
403	1520795	466	3611.0546763435
403	1527896	467	3613.694450364
403	1535045	468	3616.5336491939
403	1542190	469	3620.403758668
403	1549166	470	3624.2730250918
403	1556259	471	3628.1422262796
403	1563268	472	3632.0122081968
403	1570253	473	3635.8823306803
403	1577258	474	3640.7577361462
403	1584683	475	3645.6538430228
403	1591988	476	3650.5493738358
403	1599212	477	3655.4422188257
403	1606448	478	3660.3188586478
403	1613880	479	3665.2168884161
403	1621333	480	3670.1182049815
403	1629031	481	3675.5202731007
403	1636737	482	3680.8474319511
403	1644391	483	3686.1797377693
403	1652051	484	3691.5143427332
403	1659727	485	3696.8468341507
403	1667395	486	3702.1819083517
403	1675069	487	3707.5118539669
403	1682737	488	3712.845605366
403	1690389	489	3718.2399748401
403	1698037	490	3723.773524536
403	1705721	491	3729.3079671416
403	1713393	492	3734.8409784834
403	1721031	493	3740.3746073919
403	1728675	494	3745.9128064245
403	1736363	495	3751.449346068
403	1744043	496	3756.9838837077
403	1751688	497	3762.5140282258
403	1759335	498	3768.0511814119
403	1767021	499	3773.5875229228
403	1774773	500	3779.1251484631
403	1782477	501	3784.7071516503
403	1790177	502	3790.2434548848
403	1797752	503	3795.7802328527
403	1805390	504	3797.8907912855
403	1813187	505	3803.4293771844
403	1820998	506	3808.9642588576
403	1828785	507	3814.4995077476
403	1836552	508	3820.0377482245
403	1844295	509	3825.5772449576
403	1852025	510	3831.117520619
403	1859763	511	3836.6588326249
403	1867525	512	3842.1994446282
403	1875327	513	3847.7357151313
403	1883484	514	3853.2759882823
403	1891665	515	3858.8156747392
403	1899919	516	3864.3556406836
403	1908143	517	3869.9005796005
403	1916342	518	3875.4370471672
403	1924551	519	3880.9780812964
403	1932715	520	3886.5135348712
403	1940883	521	3892.0525721582
403	1949025	522	3897.5930265557
403	1957177	523	3903.1318223889
403	1965393	524	3906.7760577636
403	1973597	525	3910.3810157353
403	1981720	526	3914.6874606349
403	1989726	527	3918.9929769971
403	1997756	528	3921.8481112614
403	2005776	529	3922.7348717338
403	2013793	530	3923.6208220855
403	2021806	531	3924.5071862548
403	2029863	532	3925.0999062779
403	2037847	533	3924.0345708978
403	2045795	534	3922.968694263
403	2053763	535	3921.3080435092
403	2061759	536	3918.1725947616
403	2069795	537	3910.8258571463
403	2077817	538	3905.8700271325
403	2085899	539	3899.8273677391
403	2093945	540	3892.8636150127
403	2101945	541	3884.5516248468
403	2109993	542	3875.5929321394
403	2118021	543	3865.594124182
403	2125924	544	3854.920643913
403	2133853	545	3843.8025449904
403	2141755	546	3831.5191479676
403	2149641	547	3817.6457879361
403	2157600	548	3802.9606699777
403	2165557	549	3787.6572359993
403	2173469	550	3771.3332083438
403	2181379	551	3754.9907475858
403	2189281	552	3737.3415386348
403	2197233	553	3719.2423630641
403	2205288	554	3700.2974030758
403	2213343	555	3680.7217471595
403	2221408	556	3660.4710410124
403	2229451	557	3639.6104631691
403	2237444	558	3618.7117721929
403	2245449	559	3596.8701295349
403	2253371	560	3574.8286452652
403	2261269	561	3551.5287111224
403	2269145	562	3528.0036169304
403	2277019	563	3504.2754362899
403	2284919	564	3480.3013466729
403	2292811	565	3455.6121859249
403	2300683	566	3431.1801686329
403	2308696	567	3406.2072795496
403	2316637	568	3381.1762002009
403	2324550	569	3355.7720223121
403	2332453	570	3329.5265427824
403	2340370	571	3302.9919463444
403	2348267	572	3276.3103657967
403	2356237	573	3249.6427477326
403	2364128	574	3222.5572932937
403	2372015	575	3195.190377362
403	2379910	576	3167.6923345735
403	2387793	577	3139.7436741419
403	2395678	578	3111.734425966
403	2404000	579	3083.6670185256
403	2412412	580	3055.159989071
403	2420856	581	3026.5005012938
403	2429497	582	2997.5770275466
403	2438168	583	2968.5884405649
403	2446928	584	2939.4136631586
403	2455672	585	2909.9843374259
403	2464444	586	2880.3684413182
403	2473218	587	2850.6025001288
403	2481928	588	2820.668850603
403	2490847	589	2790.6484892817
403	2499724	590	2760.4966849099
403	2508609	591	2730.2268999184
403	2517513	592	2699.7510559307
403	2526507	593	2669.2352501543
403	2535666	594	2638.501136491
403	2544826	595	2607.6568724363
403	2554015	596	2576.7297631551
403	2563407	597	2545.7549223099
403	2572760	598	2514.7055178787
403	2582109	599	2483.5609169225
403	2591432	600	2452.3914416568
403	2600715	601	2421.1153909825
403	2610050	602	2389.8035815676
403	2619333	603	2358.4638403156
403	2628590	604	2327.0691533686
403	2637811	605	2295.6404567639
403	2646807	606	2264.2136435445
403	2655851	607	2232.7947363687
403	2664909	608	2201.4530961479
403	2673878	609	2169.9484049086
403	2682865	610	2138.4508703505
403	2691890	611	2107.7031789155
403	2700954	612	2076.1859693965
403	2710034	613	2044.6787652202
403	2719094	614	2013.1826297074
403	2728142	615	1981.6755871652
403	2737158	616	1950.1773753487
403	2746220	617	1918.6858225758
403	2755308	618	1887.1737783509
403	2764499	619	1855.6764886483
