version 2
run WithoutChannelSwitching-0-20181126-10:19:21-9642
attr configname WithoutChannelSwitching
attr datetime 20181126-10:19:21
attr experiment WithoutChannelSwitching
attr inifile omnetpp.ini
attr iterationvars ""
attr iterationvarsf ""
attr measurement ""
attr network LuSTScenario
attr processid 9642
attr repetition 0
attr replication #0
attr resultdir results
attr runnumber 0
attr seedset 0
param **.debug false
param **.coreDebug false
param *.playgroundSizeX 15000m
param *.playgroundSizeY 15000m
param *.playgroundSizeZ 50m
param *.annotations.draw true
param *.obstacles.debug false
param *.obstacles.obstacles "xmldoc(\"config.xml\", \"//AnalogueModel[@type='SimpleObstacleShadowing']/obstacles\")"
param *.manager.updateInterval 1s
param *.manager.host "\"localhost\""
param *.manager.port 9999
param *.manager.autoShutdown true
param *.manager.launchConfig "xmldoc(\"lust.launchd.xml\")"
param *.rsu[0].mobility.x 1538
param *.rsu[0].mobility.y 945
param *.rsu[0].mobility.z 3
param *.rsu[*].applType "\"TraCIDemoRSU11p\""
param *.rsu[*].appl.headerLength "80 bit"
param *.rsu[*].appl.sendBeacons false
param *.rsu[*].appl.dataOnSch false
param *.rsu[*].appl.beaconInterval 1s
param *.rsu[*].appl.beaconUserPriority 7
param *.rsu[*].appl.dataUserPriority 5
param *.connectionManager.sendDirect true
param *.connectionManager.maxInterfDist 2600m
param *.connectionManager.drawMaxIntfDist false
param *.**.nic.mac1609_4.useServiceChannel false
param *.**.nic.mac1609_4.txPower 20mW
param *.**.nic.mac1609_4.bitrate 6Mbps
param *.**.nic.phy80211p.sensitivity -89dBm
param *.**.nic.phy80211p.useThermalNoise true
param *.**.nic.phy80211p.thermalNoise -110dBm
param *.**.nic.phy80211p.decider "xmldoc(\"config.xml\")"
param *.**.nic.phy80211p.analogueModels "xmldoc(\"config.xml\")"
param *.**.nic.phy80211p.usePropagationDelay true
param *.**.nic.phy80211p.antenna "xmldoc(\"antenna.xml\", \"/root/Antenna[@id='monopole']\")"
param *.node[*].applType "\"JosephVeinsApp\""
param *.node[*].appl.headerLength "80 bit"
param *.node[*].appl.sendBeacons true
param *.node[*].appl.dataOnSch false
param *.node[*].appl.beaconInterval 1s
param *.node[*].veinsmobilityType.debug true
param *.node[*].veinsmobility.x 0
param *.node[*].veinsmobility.y 0
param *.node[*].veinsmobility.z 1.895

vector 0 LuSTScenario.node[0].veinsmobility posx ETV
vector 1 LuSTScenario.node[0].veinsmobility posy ETV
vector 2 LuSTScenario.node[1].veinsmobility posx ETV
vector 3 LuSTScenario.node[1].veinsmobility posy ETV
vector 4 LuSTScenario.node[0].veinsmobility speed ETV
vector 5 LuSTScenario.node[1].veinsmobility speed ETV
vector 6 LuSTScenario.node[2].veinsmobility posx ETV
vector 7 LuSTScenario.node[2].veinsmobility posy ETV
vector 8 LuSTScenario.node[3].veinsmobility posx ETV
vector 9 LuSTScenario.node[3].veinsmobility posy ETV
vector 10 LuSTScenario.node[0].veinsmobility acceleration ETV
vector 11 LuSTScenario.node[0].veinsmobility co2emission ETV
vector 12 LuSTScenario.node[1].veinsmobility acceleration ETV
vector 13 LuSTScenario.node[1].veinsmobility co2emission ETV
vector 14 LuSTScenario.node[2].veinsmobility speed ETV
vector 15 LuSTScenario.node[3].veinsmobility speed ETV
vector 16 LuSTScenario.node[2].veinsmobility acceleration ETV
vector 17 LuSTScenario.node[2].veinsmobility co2emission ETV
vector 18 LuSTScenario.node[3].veinsmobility acceleration ETV
vector 19 LuSTScenario.node[3].veinsmobility co2emission ETV
vector 20 LuSTScenario.node[4].veinsmobility posx ETV
vector 21 LuSTScenario.node[4].veinsmobility posy ETV
vector 22 LuSTScenario.node[4].veinsmobility speed ETV
vector 23 LuSTScenario.node[4].veinsmobility acceleration ETV
vector 24 LuSTScenario.node[4].veinsmobility co2emission ETV
0	2	1	11382.529510312
0	21	2	11382.529510312
0	40	3	11369.436055427
0	85	4	11354.894146447
0	130	5	11339.26076872
0	175	6	11322.541970425
0	237	7	11304.898929879
0	299	8	11286.481887219
1	2	1	1595.4087927963
1	21	2	1595.4087927963
1	40	3	1605.8061569716
1	85	4	1617.4462796526
1	130	5	1630.8151366967
1	175	6	1645.9058350754
1	237	7	1662.9832717733
1	299	8	1682.1328104487
2	2	1	6659.3449174508
2	21	2	6659.3449174508
2	40	3	6662.0278380434
2	85	4	6666.3175615034
2	130	5	6672.5614002082
2	175	6	6680.8321144662
2	237	7	6691.5895926088
2	299	8	6704.6907890878
3	2	1	5446.8291373572
3	21	2	5446.8291373572
3	40	3	5449.150910996
3	85	4	5452.8631963593
3	130	5	5458.2665542334
3	175	6	5465.2491447089
3	237	7	5472.5835149607
3	299	8	5479.2744283933
4	21	2	17.512614839075
4	40	3	19.512032555274
4	85	4	21.355333607229
4	130	5	23.369322809489
4	175	6	25.431576460381
4	237	7	27.281641131225
4	299	8	29.270902845501
5	21	2	4.4285274710562
5	40	3	6.7569770153318
5	85	4	9.4509461704814
5	130	5	11.859086780768
5	175	6	14.031664491253
5	237	7	15.097770921537
5	299	8	15.084349155729
6	40	3	10374.046061748
6	85	4	10374.046061748
6	130	5	10371.812849831
6	175	6	10368.124892532
6	237	7	10362.842888361
6	299	8	10356.004081067
7	40	3	2239.0909464335
7	85	4	2239.0909464335
7	130	5	2241.2733201649
7	175	6	2244.6152577177
7	237	7	2249.3453039321
7	299	8	2255.1633937192
8	40	3	7472.1935191838
8	85	4	7472.1935191838
8	130	5	7469.29113701
8	175	6	7464.6208929195
8	237	7	7458.0314912758
8	299	8	7449.6217401189
9	40	3	4967.6987164689
9	85	4	4967.6987164689
9	130	5	4968.3736890674
9	175	6	4968.9701148862
9	237	7	4968.6255818879
9	299	8	4968.1858702209
10	40	3	1.9994177161995
10	85	4	1.8433010519552
10	130	5	2.0139892022591
10	175	6	2.0622536508925
10	237	7	1.850064670844
10	299	8	1.9892617142759
11	40	3	12.139568646486
11	85	4	12.526667418551
11	130	5	14.75912959898
11	175	6	16.495863778419
11	237	7	16.465801060901
11	299	8	18.871612574247
12	40	3	2.3284495442756
12	85	4	2.6939691551495
12	130	5	2.4081406102865
12	175	6	2.1725777104846
12	237	7	1.0661064302844
12	299	8	-0.013421765808017
13	40	3	5.2561760897511
13	85	4	7.7798907463084
13	130	5	8.7187172921464
13	175	6	9.3889554564878
13	237	7	6.0353267816615
13	299	8	2.1059444865482
14	85	4	3.9099866582435
14	130	5	5.9039958888693
14	175	6	7.9296578459284
14	237	7	9.9064831595826
14	299	8	11.793068620146
15	85	4	3.7484977901999
15	130	5	5.6150547372752
15	175	6	7.398276216401
15	237	7	9.4037784695106
15	299	8	11.339629310539
16	130	5	1.9940092306258
16	175	6	2.0256619570591
16	237	7	1.9768253136543
16	299	8	1.8865854605637
17	130	5	4.2510219929293
17	175	6	5.4097242799351
17	237	7	6.3972962841552
17	299	8	7.1923320340936
18	130	5	1.8665569470753
18	175	6	1.7832214791258
18	237	7	2.0055022531096
18	299	8	1.9358508410281
19	130	5	3.9231021249388
19	175	6	4.6837572087772
19	237	7	6.1855502935252
19	299	8	7.0821154919956
20	175	6	5592.9386599733
20	237	7	5592.9386599733
20	299	8	5589.7616590427
21	175	6	3796.7522510255
21	237	7	3796.7522510255
21	299	8	3797.751976233
22	237	7	4.3798963562807
22	299	8	6.6848444879929
23	299	8	2.3049481317122
24	299	8	5.1734539037525
vector 25 LuSTScenario.node[5].veinsmobility posx ETV
vector 26 LuSTScenario.node[5].veinsmobility posy ETV
vector 27 LuSTScenario.node[5].veinsmobility speed ETV
vector 28 LuSTScenario.node[5].veinsmobility acceleration ETV
vector 29 LuSTScenario.node[5].veinsmobility co2emission ETV
vector 30 LuSTScenario.node[6].veinsmobility posx ETV
vector 31 LuSTScenario.node[6].veinsmobility posy ETV
vector 32 LuSTScenario.node[7].veinsmobility posx ETV
vector 33 LuSTScenario.node[7].veinsmobility posy ETV
vector 34 LuSTScenario.node[6].veinsmobility speed ETV
vector 35 LuSTScenario.node[8].veinsmobility posx ETV
vector 36 LuSTScenario.node[8].veinsmobility posy ETV
vector 37 LuSTScenario.node[6].veinsmobility acceleration ETV
vector 38 LuSTScenario.node[6].veinsmobility co2emission ETV
vector 39 LuSTScenario.node[7].veinsmobility speed ETV
vector 40 LuSTScenario.node[9].veinsmobility posx ETV
vector 41 LuSTScenario.node[9].veinsmobility posy ETV
vector 42 LuSTScenario.node[10].veinsmobility posx ETV
vector 43 LuSTScenario.node[10].veinsmobility posy ETV
vector 44 LuSTScenario.node[7].veinsmobility acceleration ETV
vector 45 LuSTScenario.node[7].veinsmobility co2emission ETV
vector 46 LuSTScenario.node[8].veinsmobility speed ETV
vector 47 LuSTScenario.node[11].veinsmobility posx ETV
vector 48 LuSTScenario.node[11].veinsmobility posy ETV
vector 49 LuSTScenario.node[8].veinsmobility acceleration ETV
vector 50 LuSTScenario.node[8].veinsmobility co2emission ETV
vector 51 LuSTScenario.node[9].veinsmobility speed ETV
vector 52 LuSTScenario.node[10].veinsmobility speed ETV
vector 53 LuSTScenario.node[9].veinsmobility acceleration ETV
vector 54 LuSTScenario.node[9].veinsmobility co2emission ETV
vector 55 LuSTScenario.node[10].veinsmobility acceleration ETV
vector 56 LuSTScenario.node[10].veinsmobility co2emission ETV
vector 57 LuSTScenario.node[11].veinsmobility speed ETV
vector 58 LuSTScenario.node[11].veinsmobility acceleration ETV
vector 59 LuSTScenario.node[11].veinsmobility co2emission ETV
vector 60 LuSTScenario.node[12].veinsmobility posx ETV
vector 61 LuSTScenario.node[12].veinsmobility posy ETV
vector 62 LuSTScenario.node[13].veinsmobility posx ETV
vector 63 LuSTScenario.node[13].veinsmobility posy ETV
vector 64 LuSTScenario.node[12].veinsmobility speed ETV
vector 65 LuSTScenario.node[13].veinsmobility speed ETV
vector 66 LuSTScenario.node[12].veinsmobility acceleration ETV
vector 67 LuSTScenario.node[12].veinsmobility co2emission ETV
vector 68 LuSTScenario.node[13].veinsmobility acceleration ETV
vector 69 LuSTScenario.node[13].veinsmobility co2emission ETV
vector 70 LuSTScenario.node[14].veinsmobility posx ETV
vector 71 LuSTScenario.node[14].veinsmobility posy ETV
vector 72 LuSTScenario.node[14].veinsmobility speed ETV
vector 73 LuSTScenario.node[15].veinsmobility posx ETV
vector 74 LuSTScenario.node[15].veinsmobility posy ETV
vector 75 LuSTScenario.node[14].veinsmobility acceleration ETV
vector 76 LuSTScenario.node[14].veinsmobility co2emission ETV
vector 77 LuSTScenario.node[15].veinsmobility speed ETV
vector 78 LuSTScenario.node[15].veinsmobility acceleration ETV
vector 79 LuSTScenario.node[15].veinsmobility co2emission ETV
24	361	9	5.574744291593
24	448	10	6.9491319064673
24	535	11	8.3956393904571
24	622	12	9.4965932986969
24	726	13	2.8943443324323
24	839	14	2.2208762476415
24	973	15	1.8575640561178
24	1161	16	2.2741302658406
24	1394	17	2.2563755692447
24	1627	18	2.1306780334983
24	1860	19	2.0065467607371
24	2093	20	2.2871563445249
24	2326	21	2.2824789939715
24	2559	22	2.1348182078904
24	2850	23	1.8220908125086
24	3141	24	2.4263827848677
24	3432	25	1.8222516918482
24	3723	26	2.2315828468478
24	4043	27	2.0315650339377
24	4363	28	2.5299928095386
24	4704	29	2.2239458859574
24	5045	30	0.973
24	5386	31	0.973
24	5727	32	0.973
24	6068	33	0.973
23	361	9	1.9235130839795
23	448	10	2.0332265839353
23	535	11	2.1085447153775
23	622	12	2.0646523745498
23	726	13	0.20624964878374
23	839	14	0.01958693487104
23	973	15	-0.07865422271192
23	1161	16	0.03569317549467
23	1394	17	0.029808803303167
23	1627	18	-0.0047547789523374
23	1860	19	-0.037976305056363
23	2093	20	0.038449918101541
23	2326	21	0.035969769326039
23	2559	22	-0.0045777644729252
23	2850	23	-0.08859116426669
23	3141	24	0.076224890574814
23	3432	25	-0.088249852783047
23	3723	26	0.024538667257875
23	4043	27	-0.030013832501137
23	4363	28	0.10440450792667
23	4704	29	0.019421742544509
23	5045	30	-0.44597363040403
23	5386	31	-4.4299574591415
23	5727	32	-4.4736464592485
23	6068	33	-4.4911947094348
22	361	9	8.6083575719723
22	448	10	10.641584155908
22	535	11	12.750128871285
22	622	12	14.814781245835
22	726	13	15.021030894619
22	839	14	15.04061782949
22	973	15	14.961963606778
22	1161	16	14.997656782272
22	1394	17	15.027465585576
22	1627	18	15.022710806623
22	1860	19	14.984734501567
22	2093	20	15.023184419668
22	2326	21	15.059154188995
22	2559	22	15.054576424522
22	2850	23	14.965985260255
22	3141	24	15.04221015083
22	3432	25	14.953960298047
22	3723	26	14.978498965305
22	4043	27	14.948485132803
22	4363	28	15.05288964073
22	4704	29	15.072311383275
22	5045	30	14.626337752871
22	5386	31	10.196380293729
22	5727	32	5.7227338344805
22	6068	33	1.2315391250457
21	361	9	3799.4423680561
21	448	10	3801.7695305942
21	535	11	3803.2274639097
21	622	12	3804.1373800425
21	726	13	3805.2098110185
21	839	14	3805.7540525463
21	973	15	3804.5968794815
21	1161	16	3803.4380915315
21	1394	17	3807.1708165586
21	1627	18	3796.6737156618
21	1860	19	3789.9243904422
21	2093	20	3787.1953806127
21	2326	21	3785.3161365346
21	2559	22	3779.498847422
21	2850	23	3774.2295000144
21	3141	24	3772.02235922
21	3432	25	3771.1968624258
21	3723	26	3777.7392966052
21	4043	27	3786.3077083481
21	4363	28	3790.0221068323
21	4704	29	3787.2240433712
21	5045	30	3784.6820553834
21	5386	31	3782.1493209794
21	5727	32	3787.580466999
21	6068	33	3790.3371126276
20	361	9	5584.3898065029
20	448	10	5576.9838390645
20	535	11	5567.4159645139
20	622	12	5555.6182162984
20	726	13	5541.7133406989
20	839	14	5526.7340508609
20	973	15	5511.7716194541
20	1161	16	5496.7883073268
20	1394	17	5483.1236113148
20	1627	18	5472.8193138076
20	1860	19	5460.3911093979
20	2093	20	5445.6350464777
20	2326	21	5430.7538779244
20	2559	22	5417.201670386
20	2850	23	5403.2396253785
20	3141	24	5388.4636893378
20	3432	25	5373.5605583128
20	3723	26	5360.3849179724
20	4043	27	5348.0804579
20	4363	28	5334.7725871221
20	4704	29	5320.0268272175
20	5045	30	5305.2320299036
20	5386	31	5290.4910900029
20	5727	32	5279.938415588
20	6068	33	5273.1725104933
vector 80 LuSTScenario.node[16].veinsmobility posx ETV
vector 81 LuSTScenario.node[16].veinsmobility posy ETV
vector 82 LuSTScenario.node[17].veinsmobility posx ETV
vector 83 LuSTScenario.node[17].veinsmobility posy ETV
vector 84 LuSTScenario.node[16].veinsmobility speed ETV
vector 85 LuSTScenario.node[16].veinsmobility acceleration ETV
vector 86 LuSTScenario.node[16].veinsmobility co2emission ETV
vector 87 LuSTScenario.node[17].veinsmobility speed ETV
vector 88 LuSTScenario.node[18].veinsmobility posx ETV
vector 89 LuSTScenario.node[18].veinsmobility posy ETV
vector 90 LuSTScenario.node[19].veinsmobility posx ETV
vector 91 LuSTScenario.node[19].veinsmobility posy ETV
vector 92 LuSTScenario.node[20].veinsmobility posx ETV
vector 93 LuSTScenario.node[20].veinsmobility posy ETV
vector 94 LuSTScenario.node[17].veinsmobility acceleration ETV
vector 95 LuSTScenario.node[17].veinsmobility co2emission ETV
vector 96 LuSTScenario.node[18].veinsmobility speed ETV
vector 97 LuSTScenario.node[19].veinsmobility speed ETV
vector 98 LuSTScenario.node[20].veinsmobility speed ETV
vector 99 LuSTScenario.node[21].veinsmobility posx ETV
vector 100 LuSTScenario.node[21].veinsmobility posy ETV
vector 101 LuSTScenario.node[18].veinsmobility acceleration ETV
vector 102 LuSTScenario.node[18].veinsmobility co2emission ETV
vector 103 LuSTScenario.node[19].veinsmobility acceleration ETV
vector 104 LuSTScenario.node[19].veinsmobility co2emission ETV
vector 105 LuSTScenario.node[20].veinsmobility acceleration ETV
vector 106 LuSTScenario.node[20].veinsmobility co2emission ETV
vector 107 LuSTScenario.node[22].veinsmobility posx ETV
vector 108 LuSTScenario.node[22].veinsmobility posy ETV
vector 109 LuSTScenario.node[21].veinsmobility speed ETV
vector 110 LuSTScenario.node[23].veinsmobility posx ETV
vector 111 LuSTScenario.node[23].veinsmobility posy ETV
vector 112 LuSTScenario.node[21].veinsmobility acceleration ETV
vector 113 LuSTScenario.node[21].veinsmobility co2emission ETV
vector 114 LuSTScenario.node[22].veinsmobility speed ETV
vector 115 LuSTScenario.node[22].veinsmobility acceleration ETV
vector 116 LuSTScenario.node[22].veinsmobility co2emission ETV
vector 117 LuSTScenario.node[23].veinsmobility speed ETV
vector 118 LuSTScenario.node[24].veinsmobility posx ETV
vector 119 LuSTScenario.node[24].veinsmobility posy ETV
vector 120 LuSTScenario.node[23].veinsmobility acceleration ETV
vector 121 LuSTScenario.node[23].veinsmobility co2emission ETV
vector 122 LuSTScenario.node[24].veinsmobility speed ETV
vector 123 LuSTScenario.node[24].veinsmobility acceleration ETV
vector 124 LuSTScenario.node[24].veinsmobility co2emission ETV
vector 125 LuSTScenario.node[25].veinsmobility posx ETV
vector 126 LuSTScenario.node[25].veinsmobility posy ETV
vector 127 LuSTScenario.node[25].veinsmobility speed ETV
vector 128 LuSTScenario.node[25].veinsmobility acceleration ETV
vector 129 LuSTScenario.node[25].veinsmobility co2emission ETV
vector 130 LuSTScenario.node[26].veinsmobility posx ETV
vector 131 LuSTScenario.node[26].veinsmobility posy ETV
vector 132 LuSTScenario.node[27].veinsmobility posx ETV
vector 133 LuSTScenario.node[27].veinsmobility posy ETV
vector 134 LuSTScenario.node[26].veinsmobility speed ETV
vector 135 LuSTScenario.node[27].veinsmobility speed ETV
vector 136 LuSTScenario.node[26].veinsmobility acceleration ETV
vector 137 LuSTScenario.node[26].veinsmobility co2emission ETV
vector 138 LuSTScenario.node[27].veinsmobility acceleration ETV
vector 139 LuSTScenario.node[27].veinsmobility co2emission ETV
vector 140 LuSTScenario.node[28].veinsmobility posx ETV
vector 141 LuSTScenario.node[28].veinsmobility posy ETV
vector 142 LuSTScenario.node[29].veinsmobility posx ETV
vector 143 LuSTScenario.node[29].veinsmobility posy ETV
vector 144 LuSTScenario.node[28].veinsmobility speed ETV
vector 145 LuSTScenario.node[29].veinsmobility speed ETV
vector 146 LuSTScenario.node[28].veinsmobility acceleration ETV
vector 147 LuSTScenario.node[28].veinsmobility co2emission ETV
vector 148 LuSTScenario.node[29].veinsmobility acceleration ETV
vector 149 LuSTScenario.node[29].veinsmobility co2emission ETV
vector 150 LuSTScenario.node[30].veinsmobility posx ETV
vector 151 LuSTScenario.node[30].veinsmobility posy ETV
vector 152 LuSTScenario.node[30].veinsmobility speed ETV
vector 153 LuSTScenario.node[30].veinsmobility acceleration ETV
vector 154 LuSTScenario.node[30].veinsmobility co2emission ETV
vector 155 LuSTScenario.node[31].veinsmobility posx ETV
vector 156 LuSTScenario.node[31].veinsmobility posy ETV
vector 157 LuSTScenario.node[31].veinsmobility speed ETV
vector 158 LuSTScenario.node[31].veinsmobility acceleration ETV
vector 159 LuSTScenario.node[31].veinsmobility co2emission ETV
vector 160 LuSTScenario.node[32].veinsmobility posx ETV
vector 161 LuSTScenario.node[32].veinsmobility posy ETV
vector 162 LuSTScenario.node[32].veinsmobility speed ETV
vector 163 LuSTScenario.node[32].veinsmobility acceleration ETV
vector 164 LuSTScenario.node[32].veinsmobility co2emission ETV
vector 165 LuSTScenario.node[33].veinsmobility posx ETV
vector 166 LuSTScenario.node[33].veinsmobility posy ETV
vector 167 LuSTScenario.node[34].veinsmobility posx ETV
vector 168 LuSTScenario.node[34].veinsmobility posy ETV
166	55772	97	2182.8221358891
165	55772	97	1835.2725402433
11	361	9	20.52666537516
11	448	10	12.16180389241
11	535	11	6.5502591430519
11	622	12	5.0563302475852
11	726	13	5.78237726556
11	839	14	5.6598479637876
11	973	15	5.4773973897118
11	1161	16	6.3490570362351
11	1394	17	5.6768383683507
11	1627	18	5.5330478988923
11	1860	19	6.2627301999941
11	2093	20	5.1535481099622
11	2326	21	6.130850853603
11	2559	22	5.131401441168
11	2850	23	5.8770534394572
11	3141	24	6.3682178654125
11	3432	25	5.1534189207997
11	3723	26	5.9736438367951
11	4043	27	6.1531858881384
11	4363	28	4.8963366116842
11	4704	29	5.8127617232729
11	5045	30	5.6090556552673
11	5386	31	5.7220085679477
11	5727	32	6.2233322708718
11	6068	33	6.0284184101325
11	6417	34	5.3705182007813
11	6741	35	5.5057693782121
11	7061	36	6.0535158167679
11	7381	37	5.9804930489221
11	7742	38	5.5386528222873
11	8132	39	5.1331870427651
11	8522	40	5.949080438066
11	9079	41	5.695438431597
11	9636	42	6.0920642678808
11	10206	43	5.7171016630831
11	10785	44	5.5503446215828
11	11401	45	5.4963888277763
11	12017	46	6.2922134534244
11	12646	47	5.4207529999903
11	13275	48	5.6900249805995
11	13904	49	5.9473911435115
11	14533	50	5.3656075470137
11	15162	51	6.3382441509569
11	15836	52	5.304152460537
11	16514	53	5.6708426988487
11	17192	54	5.5908362271733
11	17976	55	5.9243558641587
11	18760	56	5.7387376032387
11	19536	57	6.1088254997567
11	20312	58	5.5525583464781
11	21174	59	5.9974006816886
11	22036	60	5.3278352300427
11	22902	61	5.2500968460495
11	23768	62	6.635388247094
11	24634	63	4.8688017689065
11	25508	64	5.746265249871
11	26395	65	6.2928959033486
11	27282	66	5.3158802761509
11	28177	67	5.6122033638468
11	29068	68	6.3707430952378
11	29959	69	5.8938150750845
11	30850	70	5.6819429632247
11	31745	71	5.0382979402341
11	32644	72	5.6564255705761
11	33543	73	5.9049784242707
11	34442	74	5.5721768624898
11	35345	75	6.165514617101
11	36252	76	6.1827321885312
11	37151	77	5.2864125950124
11	38054	78	5.4996765438312
11	38953	79	6.3040893884606
11	39856	80	5.1716868480099
11	40763	81	5.9786777216647
11	41674	82	6.14939484372
11	42585	83	4.9761634498665
11	43496	84	5.7952020890789
11	44407	85	5.7739756753183
11	45318	86	6.2460208579507
11	46229	87	5.8716796123878
11	47132	88	4.9940199089398
11	48084	89	6.5290985595649
11	49040	90	5.110038999663
11	49996	91	6.0596260196779
11	50948	92	5.3986800632476
11	51904	93	5.8526160300482
11	52873	94	6.2264695477889
11	53842	95	5.4781058640219
11	54807	96	5.5043865466498
11	55772	97	6.1079977761863
10	361	9	2.0012882460514
10	448	10	0.83309848961144
10	535	11	0.10305639573606
10	622	12	-0.085926547977145
10	726	13	0.0075327405822492
10	839	14	-0.0079499159986156
10	973	15	-0.030242046706846
10	1161	16	0.078858223112768
10	1394	17	-0.007521544515626
10	1627	18	-0.02501146910712
10	1860	19	0.06619828677271
10	2093	20	-0.073702246467583
10	2326	21	0.050256190984506
10	2559	22	-0.075531115920747
10	2850	23	0.019964563050308
10	3141	24	0.079755911275278
10	3432	25	-0.073747470164669
10	3723	26	0.030813803651832
10	4043	27	0.051659187274055
10	4363	28	-0.10600867623463
10	4704	29	0.011905255380547
10	5045	30	-0.013820101555901
10	5386	31	0.00074580148328351
10	5727	32	0.06270275783492
10	6068	33	0.035965691001621
10	6417	34	-0.046843954210637
10	6741	35	-0.028199856677091
10	7061	36	0.0407255755458
10	7381	37	0.029982443084009
10	7742	38	-0.025856033416929
10	8132	39	-0.075082515829706
10	8522	40	0.029100310152863
10	9079	41	-0.0035058564343515
10	9636	42	0.045683169257828
10	10206	43	-0.0025679284404063
10	10785	44	-0.023096689430531
10	11401	45	-0.028842406228648
10	12017	46	0.070759540731089
10	12646	47	-0.039908739100213
10	13275	48	-0.0049404538306419
10	13904	49	0.027089926900807
10	14533	50	-0.046029862647408
10	15162	51	0.076130564862396
10	15836	52	-0.054850802742877
10	16514	53	-0.0072076241788466
10	17192	54	-0.016820178923659
10	17976	55	0.025157353887337
10	18760	56	0.001148356313351
10	19536	57	0.046823856935369
10	20312	58	-0.02385809987085
10	21174	59	0.03209813969908
10	22036	60	-0.052015233773268
10	22902	61	-0.05958875746699
10	23768	62	0.11418421774404
10	24634	63	-0.10909311667783
10	25508	64	0.0041658891667637
10	26395	65	0.071571916826066
10	27282	66	-0.052269346178505
10	28177	67	-0.013415124439639
10	29068	68	0.080915559998253
10	29959	69	0.018616142175155
10	30850	70	-0.0083239049045361
10	31745	71	-0.087727614410689
10	32644	72	-0.0075261899246826
10	33543	73	0.023566111230757
10	34442	74	-0.018626225076147
10	35345	75	0.055557585617059
10	36252	76	0.055291263379623
10	37151	77	-0.057756460255476
10	38054	78	-0.029013960377782
10	38953	79	0.071610400478825
10	39856	80	-0.071379990386781
10	40763	81	0.031444435638846
10	41674	82	0.05117355721071
10	42585	83	-0.096088555431926
10	43496	84	0.0093205724610073
10	44407	85	0.0063055360503483
10	45318	86	0.064348682903216
10	46229	87	0.015431485890879
10	47132	88	-0.093844477133828
10	48084	89	0.099836226752963
10	49040	90	-0.079677000038792
10	49996	91	0.041091252288318
10	50948	92	-0.042358663084457
10	51904	93	0.015569289391863
10	52873	94	0.061056639475282
10	53842	95	-0.03390582658816
10	54807	96	-0.029279202411416
10	55772	97	0.046540746621318
4	361	9	31.272191091553
4	448	10	32.105289581164
4	535	11	32.2083459769
4	622	12	32.122419428923
4	726	13	32.129952169505
4	839	14	32.122002253507
4	973	15	32.0917602068
4	1161	16	32.170618429912
4	1394	17	32.163096885397
4	1627	18	32.13808541629
4	1860	19	32.204283703062
4	2093	20	32.130581456595
4	2326	21	32.180837647579
4	2559	22	32.105306531659
4	2850	23	32.125271094709
4	3141	24	32.205027005984
4	3432	25	32.131279535819
4	3723	26	32.162093339471
4	4043	27	32.213752526745
4	4363	28	32.107743850511
4	4704	29	32.119649105891
4	5045	30	32.105829004335
4	5386	31	32.106574805819
4	5727	32	32.169277563654
4	6068	33	32.205243254655
4	6417	34	32.158399300445
4	6741	35	32.130199443767
4	7061	36	32.170925019313
4	7381	37	32.200907462397
4	7742	38	32.17505142898
4	8132	39	32.099968913151
4	8522	40	32.129069223304
4	9079	41	32.125563366869
4	9636	42	32.171246536127
4	10206	43	32.168678607687
4	10785	44	32.145581918256
4	11401	45	32.116739512027
4	12017	46	32.187499052758
4	12646	47	32.147590313658
4	13275	48	32.142649859828
4	13904	49	32.169739786728
4	14533	50	32.123709924081
4	15162	51	32.199840488943
4	15836	52	32.144989686201
4	16514	53	32.137782062022
4	17192	54	32.120961883098
4	17976	55	32.146119236985
4	18760	56	32.147267593299
4	19536	57	32.194091450234
4	20312	58	32.170233350363
4	21174	59	32.202331490062
4	22036	60	32.150316256289
4	22902	61	32.090727498822
4	23768	62	32.204911716566
4	24634	63	32.095818599888
4	25508	64	32.099984489055
4	26395	65	32.171556405881
4	27282	66	32.119287059703
4	28177	67	32.105871935263
4	29068	68	32.186787495261
4	29959	69	32.205403637436
4	30850	70	32.197079732532
4	31745	71	32.109352118121
4	32644	72	32.101825928196
4	33543	73	32.125392039427
4	34442	74	32.106765814351
4	35345	75	32.162323399968
4	36252	76	32.217614663348
4	37151	77	32.159858203092
4	38054	78	32.130844242715
4	38953	79	32.202454643193
4	39856	80	32.131074652807
4	40763	81	32.162519088445
4	41674	82	32.213692645656
4	42585	83	32.117604090224
4	43496	84	32.126924662685
4	44407	85	32.133230198736
4	45318	86	32.197578881639
4	46229	87	32.21301036753
4	47132	88	32.119165890396
4	48084	89	32.219002117149
4	49040	90	32.13932511711
4	49996	91	32.180416369398
4	50948	92	32.138057706314
4	51904	93	32.153626995706
4	52873	94	32.214683635181
4	53842	95	32.180777808593
4	54807	96	32.151498606181
4	55772	97	32.198039352803
1	361	9	1702.4856954015
1	448	10	1725.7869560419
1	535	11	1750.832415603
1	622	12	1776.3512234207
1	726	13	1803.23916921
1	839	14	1830.9925892507
1	973	15	1859.077480739
1	1161	16	1887.9476786817
1	1394	17	1917.4545686341
1	1627	18	1947.2808936089
1	1860	19	1977.6813586447
1	2093	20	2008.4648044303
1	2326	21	2039.5143805764
1	2559	22	2070.7871306651
1	2850	23	2102.5760627445
1	3141	24	2134.5533419007
1	3432	25	2166.6446806806
1	3723	26	2198.5940607245
1	4043	27	2230.7355737291
1	4363	28	2262.8907749792
1	4704	29	2295.055296234
1	5045	30	2326.421749818
1	5386	31	2358.5024780238
1	5727	32	2390.5692848067
1	6068	33	2422.6578367294
1	6417	34	2454.7631078977
1	6741	35	2486.856633047
1	7061	36	2518.9419734593
1	7381	37	2551.0282096292
1	7742	38	2583.1448190931
1	8132	39	2615.2793950275
1	8522	40	2647.4191940537
1	9079	41	2679.5514051728
1	9636	42	2711.6800024546
1	10206	43	2743.7622362737
1	10785	44	2775.6753056244
1	11401	45	2807.5066824389
1	12017	46	2839.256872995
1	12646	47	2870.9271335429
1	13275	48	2902.2830906573
1	13904	49	2933.2802844179
1	14533	50	2964.1074007264
1	15162	51	2994.7423973502
1	15836	52	3025.0795219999
1	16514	53	3055.1813650684
1	17192	54	3085.2310138861
1	17976	55	3115.301947804
1	18760	56	3145.3648079872
1	19536	57	3175.2322079508
1	20312	58	3205.0661240533
1	21174	59	3234.8692766255
1	22036	60	3264.6864823339
1	22902	61	3294.5150346984
1	23768	62	3324.7588828064
1	24634	63	3355.053240477
1	25508	64	3385.4113051882
1	26395	65	3416.0204730455
1	27282	66	3447.2191090249
1	28177	67	3478.4268386398
1	29068	68	3509.6422665084
1	29959	69	3540.8548323405
1	30850	70	3572.4141439903
1	31745	71	3604.1198763563
1	32644	72	3635.8636085297
1	33543	73	3667.8309608393
1	34442	74	3699.8359813163
1	35345	75	3731.501290161
1	36252	76	3763.4216532335
1	37151	77	3795.6318925611
1	38054	78	3827.8637903922
1	38953	79	3859.9163734974
1	39856	80	3891.9993655302
1	40763	81	3924.048924221
1	41674	82	3956.1116896431
1	42585	83	3988.1935575991
1	43496	84	4020.2884153246
1	44407	85	4052.3121630324
1	45318	86	4084.2799913974
1	46229	87	4116.2275586965
1	47132	88	4147.9430820317
1	48084	89	4179.5587584445
1	49040	90	4211.1749832977
1	49996	91	4242.1863323662
1	50948	92	4273.0695734441
1	51904	93	4303.5044556452
1	52873	94	4333.6536490455
1	53842	95	4363.4615788839
1	54807	96	4393.1958401763
1	55772	97	4422.888945326
0	361	9	11267.229714635
0	448	10	11247.734177322
0	535	11	11227.812104183
0	622	12	11208.209798483
0	726	13	11192.172218478
0	839	14	11175.660244976
0	973	15	11159.697552538
0	1161	16	11145.338412922
0	1394	17	11132.269233121
0	1627	18	11119.906611502
0	1860	19	11109.03432405
0	2093	20	11099.271060603
0	2326	21	11090.418477598
0	2559	22	11082.424985685
0	2850	23	11076.885439512
0	3141	24	11072.470657374
0	3432	25	11068.924388955
0	3723	26	11066.093461092
0	4043	27	11065.179336485
0	4363	28	11064.264822576
0	4704	29	11064.417644397
0	5045	30	11068.524050497
0	5386	31	11070.533971969
0	5727	32	11072.543021235
0	6068	33	11074.553432878
0	6417	34	11076.564892015
0	6741	35	11078.557891688
0	7061	36	11080.526461828
0	7381	37	11082.495086927
0	7742	38	11083.828542152
0	8132	39	11085.072277813
0	8522	40	11086.192152412
0	9079	41	11085.411402142
0	9636	42	11084.185479765
0	10206	43	11082.067150081
0	10785	44	11078.147407361
0	11401	45	11073.791438819
0	12017	46	11068.662503151
0	12646	47	11063.043078193
0	13275	48	11055.935359003
0	13904	49	11047.426859308
0	14533	50	11038.269189137
0	15162	51	11028.486059166
0	15836	52	11017.846291859
0	16514	53	11006.548224705
0	17192	54	10995.159227556
0	17976	55	10983.762163227
0	18760	56	10972.368158892
0	19536	57	10960.478081484
0	20312	58	10948.431679069
0	21174	59	10936.397698418
0	22036	60	10924.358043361
0	22902	61	10912.361673539
0	23768	62	10901.459821314
0	24634	63	10890.592162269
0	25508	64	10879.974899283
0	26395	65	10870.217477808
0	27282	66	10862.468188113
0	28177	67	10854.716639691
0	29068	68	10846.963179133
0	29959	69	10839.210429464
0	30850	70	10833.166589435
0	31745	71	10827.909940217
0	32644	72	10822.826339956
0	33543	73	10819.454382607
0	34442	74	10816.078451971
0	35345	75	10814.294645774
0	36252	76	10810.942218309
0	37151	77	10810.889564256
0	38054	78	10811.550839093
0	38953	79	10812.629765724
0	39856	80	10813.709715954
0	40763	81	10814.78854078
0	41674	82	10815.867810159
0	42585	83	10815.825368655
0	43496	84	10815.468806877
0	44407	85	10813.437640583
0	45318	86	10810.63436219
0	46229	87	10807.574525879
0	47132	88	10802.837861819
0	48084	89	10797.48808202
0	49040	90	10791.90810411
0	49996	91	10783.584902109
0	50948	92	10774.894818726
0	51904	93	10764.756452052
0	52873	94	10754.427759344
0	53842	95	10742.41280265
0	54807	96	10730.188725711
0	55772	97	10718.67425839
29	535	11	13.20263354691
29	622	12	13.467242327303
29	726	13	14.730314679753
29	839	14	17.712160584546
29	973	15	18.485735342557
29	1161	16	21.359231788387
29	1394	17	19.915617974306
29	1627	18	23.946348015527
29	1860	19	11.548084293647
29	2093	20	6.7872612965534
29	2326	21	6.6701249637894
29	2559	22	6.8205325336079
29	2850	23	6.0629440078835
29	3141	24	6.967714109443
29	3432	25	7.2919483727047
29	3723	26	6.3243081487244
29	4043	27	7.1351920991237
29	4363	28	6.7974546544657
29	4704	29	5.6280476071723
29	5045	30	7.1910786972403
29	5386	31	6.4587463516353
29	5727	32	7.1028511915908
29	6068	33	7.0619839234001
29	6417	34	5.8815455027976
29	6741	35	7.2745381415138
29	7061	36	7.1198854606653
29	7381	37	6.198792220981
29	7742	38	6.4273634692209
29	8132	39	6.4414646918339
29	8522	40	7.2374747625654
29	9079	41	6.8871284741785
29	9636	42	6.4870421903098
29	10206	43	7.2238941832758
29	10785	44	5.8138934650289
29	11401	45	7.4986515362604
29	12017	46	6.7452789071066
29	12646	47	6.7101866543193
29	13275	48	6.6475274463949
29	13904	49	6.7765130928684
29	14533	50	6.0711555921855
29	15162	51	7.5043729377751
29	15836	52	5.8684867383065
29	16514	53	7.3892285722463
29	17192	54	6.7648328670989
29	17976	55	6.0439865709244
29	18760	56	7.577788769728
29	19536	57	6.2600800157542
29	20312	58	6.8240285452462
29	21174	59	6.3830143024223
29	22036	60	6.9939834468415
29	22902	61	7.2346727848811
29	23768	62	5.7327833694663
29	24634	63	6.7988054528923
29	25508	64	6.724434470514
29	26395	65	7.0370485812146
29	27282	66	7.0260729414885
29	28177	67	6.5764791842628
29	29068	68	6.8323167030633
29	29959	69	6.2881816001255
29	30850	70	7.1641536077167
29	31745	71	7.0406139732981
29	32644	72	6.6057129333017
29	33543	73	6.0814848298269
29	34442	74	6.8605999852517
29	35345	75	7.3886112801117
29	36252	76	5.7517302312097
29	37151	77	7.7509448151449
29	38054	78	5.6449864493224
29	38953	79	7.1152723294827
29	39856	80	6.6593390062399
29	40763	81	7.1973203357994
29	41674	82	6.8275697546474
29	42585	83	6.1817935112949
29	43496	84	7.4050872285951
29	44407	85	6.6563737695641
29	45318	86	6.2894146896366
29	46229	87	6.1098263093263
29	47132	88	3.169410265987
29	48084	89	5.2409787718896
29	49040	90	5.0461833648952
29	49996	91	3.5566522829861
29	50948	92	4.6237582859868
29	51904	93	4.7176627504639
29	52873	94	4.9293140993399
29	53842	95	5.0027340768707
29	54807	96	5.3831928418102
29	55772	97	5.1182624578215
28	535	11	2.1334870624589
28	622	12	1.9339348475961
28	726	13	1.9313525034534
28	839	14	2.1673735505669
28	973	15	2.0475862474693
28	1161	16	2.2047450208338
28	1394	17	1.8196518834867
28	1627	18	2.1044675294589
28	1860	19	0.57165964058214
28	2093	20	0.0059562823129866
28	2326	21	-0.0076058143470448
28	2559	22	0.0098055217880741
28	2850	23	-0.076799486144445
28	3141	24	0.029491185997614
28	3432	25	0.064938541720622
28	3723	26	-0.047774084084672
28	4043	27	0.046399739384654
28	4363	28	0.0060372970998301
28	4704	29	-0.12736095664091
28	5045	30	0.056126807280812
28	5386	31	-0.029619452334003
28	5727	32	0.044914576490406
28	6068	33	0.038258443190713
28	6417	34	-0.097686006287113
28	6741	35	0.065051666558723
28	7061	36	0.044569315477275
28	7381	37	-0.062015016837975
28	7742	38	-0.033343009608799
28	8132	39	-0.030303284330294
28	8522	40	0.061576700261796
28	9079	41	0.019036230556665
28	9636	42	-0.027278992286881
28	10206	43	0.057613207269455
28	10785	44	-0.10529588604346
28	11401	45	0.090932622575203
28	12017	46	0.0013820831244828
28	12646	47	-0.002664004825057
28	13275	48	-0.0096661687362953
28	13904	49	0.0054106310429063
28	14533	50	-0.075107288891452
28	15162	51	0.091104696695695
28	15836	52	-0.098901330376975
28	16514	53	0.078417636719536
28	17192	54	0.004043389400465
28	17976	55	-0.078188390759749
28	18760	56	0.099581050123085
28	19536	57	-0.054457684159281
28	20312	58	0.012047315896488
28	21174	59	-0.038649228964928
28	22036	60	0.032536566765046
28	22902	61	0.058374159839005
28	23768	62	-0.11500603300985
28	24634	63	0.011417304417115
28	25508	64	0.0024510307377241
28	26395	65	0.03788578036707
28	27282	66	0.034941717670293
28	28177	67	-0.017665054476815
28	29068	68	0.0121786643099
28	29959	69	-0.050240076715127
28	30850	70	0.051542808180677
28	31745	71	0.035212536677719
28	32644	72	-0.015691152163782
28	33543	73	-0.074675488183274
28	34442	74	0.017235925523565
28	35345	75	0.076359864249824
28	36252	76	-0.11308472666889
28	37151	77	0.11906502573285
28	38054	78	-0.12552122192923
28	38953	79	0.047329655019567
28	39856	80	-0.0065897043095902
28	40763	81	0.05479770636186
28	41674	82	0.010406137313694
28	42585	83	-0.063467324725352
28	43496	84	0.078257682747207
28	44407	85	-0.010131214857104
28	45318	86	-0.051409333739429
28	46229	87	-0.069706221133281
28	47132	88	-0.40628411998613
28	48084	89	-0.15046098834775
28	49040	90	-0.16731834506795
28	49996	91	-0.33678487619367
28	50948	92	-0.19802141725494
28	51904	93	-0.17941516087956
28	52873	94	-0.1472542237567
28	53842	95	-0.13276639437455
28	54807	96	-0.081699185757316
28	55772	97	-0.11049375552999
27	448	10	18.022854093448
27	535	11	20.156341155907
27	622	12	22.090276003503
27	726	13	24.021628506957
27	839	14	26.189002057524
27	973	15	28.236588304993
27	1161	16	30.441333325827
27	1394	17	32.260985209313
27	1627	18	34.365452738772
27	1860	19	34.937112379354
27	2093	20	34.943068661667
27	2326	21	34.93546284732
27	2559	22	34.945268369108
27	2850	23	34.868468882964
27	3141	24	34.897960068962
27	3432	25	34.962898610682
27	3723	26	34.915124526598
27	4043	27	34.961524265982
27	4363	28	34.967561563082
27	4704	29	34.840200606441
27	5045	30	34.896327413722
27	5386	31	34.866707961388
27	5727	32	34.911622537878
27	6068	33	34.949880981069
27	6417	34	34.852194974782
27	6741	35	34.917246641341
27	7061	36	34.961815956818
27	7381	37	34.89980093998
27	7742	38	34.866457930371
27	8132	39	34.836154646041
27	8522	40	34.897731346303
27	9079	41	34.916767576859
27	9636	42	34.889488584572
27	10206	43	34.947101791842
27	10785	44	34.841805905798
27	11401	45	34.932738528374
27	12017	46	34.934120611498
27	12646	47	34.931456606673
27	13275	48	34.921790437937
27	13904	49	34.92720106898
27	14533	50	34.852093780088
27	15162	51	34.943198476784
27	15836	52	34.844297146407
27	16514	53	34.922714783126
27	17192	54	34.926758172527
27	17976	55	34.848569781767
27	18760	56	34.94815083189
27	19536	57	34.893693147731
27	20312	58	34.905740463627
27	21174	59	34.867091234663
27	22036	60	34.899627801428
27	22902	61	34.958001961267
27	23768	62	34.842995928257
27	24634	63	34.854413232674
27	25508	64	34.856864263412
27	26395	65	34.894750043779
27	27282	66	34.929691761449
27	28177	67	34.912026706972
27	29068	68	34.924205371282
27	29959	69	34.873965294567
27	30850	70	34.925508102748
27	31745	71	34.960720639425
27	32644	72	34.945029487262
27	33543	73	34.870353999078
27	34442	74	34.887589924602
27	35345	75	34.963949788852
27	36252	76	34.850865062183
27	37151	77	34.969930087916
27	38054	78	34.844408865986
27	38953	79	34.891738521006
27	39856	80	34.885148816696
27	40763	81	34.939946523058
27	41674	82	34.950352660372
27	42585	83	34.886885335647
27	43496	84	34.965143018394
27	44407	85	34.955011803537
27	45318	86	34.903602469797
27	46229	87	34.833896248664
27	47132	88	34.427612128678
27	48084	89	34.27715114033
27	49040	90	34.109832795262
27	49996	91	33.773047919068
27	50948	92	33.575026501813
27	51904	93	33.395611340934
27	52873	94	33.248357117177
27	53842	95	33.115590722803
27	54807	96	33.033891537045
27	55772	97	32.923397781515
26	361	9	1595.1911700692
26	448	10	1595.1911700692
26	535	11	1605.8157012843
26	622	12	1617.846122659
26	726	13	1631.6841683641
26	839	14	1647.2713024521
26	973	15	1664.9949073235
26	1161	16	1684.7150433741
26	1394	17	1706.0663983136
26	1627	18	1730.2005905338
26	1860	19	1756.4755074354
26	2093	20	1784.1557752389
26	2326	21	1813.9371673856
26	2559	22	1844.3693817364
26	2850	23	1875.0871939665
26	3141	24	1906.9523413218
26	3432	25	1939.3206203653
26	3723	26	1972.1700385054
26	4043	27	2005.4835298985
26	4363	28	2039.1620677625
26	4704	29	2073.1764160495
26	5045	30	2107.6778631467
26	5386	31	2142.4112806065
26	5727	32	2177.2814913279
26	6068	33	2211.9583297463
26	6417	34	2246.8707778824
26	6741	35	2281.7769615685
26	7061	36	2315.9056399732
26	7381	37	2350.7413030554
26	7742	38	2385.5839783903
26	8132	39	2420.4348820987
26	8522	40	2455.2788597852
26	9079	41	2490.1274955946
26	9636	42	2524.9729365745
26	10206	43	2559.8167912111
26	10785	44	2594.6857626896
26	11401	45	2629.5492876231
26	12017	46	2664.4518974029
26	12646	47	2699.357426185
26	13275	48	2734.172411004
26	13904	49	2768.8534984209
26	14533	50	2803.4445463363
26	15162	51	2837.9061154472
26	15836	52	2872.2949740752
26	16514	53	2906.2874473773
26	17192	54	2939.9025351527
26	17976	55	2973.3143468772
26	18760	56	3006.4962210038
26	19536	57	3039.2705142709
26	20312	58	3071.9109716632
26	21174	59	3104.5263907109
26	22036	60	3137.1687633712
26	22902	61	3169.6684848965
26	23768	62	3202.0356682347
26	24634	63	3234.3805332285
26	25508	64	3266.7210462674
26	26395	65	3299.170452936
26	27282	66	3332.0111010914
26	28177	67	3364.8976982134
26	29068	68	3397.8455969186
26	29959	69	3431.4666717037
26	30850	70	3465.3347501256
26	31745	71	3499.2256382615
26	32644	72	3533.0917295842
26	33543	73	3567.2275611633
26	34442	74	3601.6674391784
26	35345	75	3636.1418736566
26	36252	76	3670.8593809105
26	37151	77	3705.5548039306
26	38054	78	3739.9636928363
26	38953	79	3774.7981318016
26	39856	80	3809.6253120204
26	40763	81	3844.4975943977
26	41674	82	3879.3947091935
26	42585	83	3914.2794683121
26	43496	84	3949.1620752291
26	44407	85	3984.0532313208
26	45318	86	4018.9647168878
26	46229	87	4053.8008183724
26	47132	88	4088.0206637667
26	48084	89	4122.4137721059
26	49040	90	4156.241194755
26	49996	91	4189.8258713613
26	50948	92	4222.8956794756
26	51904	93	4255.3802938327
26	52873	94	4287.277121886
26	53842	95	4318.86988924
26	54807	96	4349.7198869845
26	55772	97	4380.4299141359
25	361	9	11382.803563747
25	448	10	11382.803563747
25	535	11	11369.424036224
25	622	12	11354.426574931
25	726	13	11338.244533729
25	839	14	11321.0699913
25	973	15	11302.964242137
25	1161	16	11283.99842823
25	1394	17	11264.233836931
25	1627	18	11244.041408195
25	1860	19	11223.477355789
25	2093	20	11202.214721766
25	2326	21	11185.420749882
25	2559	22	11168.057238059
25	2850	23	11151.203248953
25	3141	24	11136.671614376
25	3432	25	11123.206040653
25	3723	26	11110.998854593
25	4043	27	11100.171414699
25	4363	28	11090.511977282
25	4704	29	11082.008628298
25	5045	30	11075.996398672
25	5386	31	11071.471950545
25	5727	32	11068.168303928
25	6068	33	11065.713372975
25	6417	34	11064.720441251
25	6741	35	11064.320942824
25	7061	36	11067.921469196
25	7381	37	11070.04771891
25	7742	38	11072.230681866
25	8132	39	11074.414160347
25	8522	40	11076.597204898
25	9079	41	11078.758572817
25	9636	42	11080.896486698
25	10206	43	11082.925654863
25	10785	44	11084.275222486
25	11401	45	11085.624579306
25	12017	46	11085.77829083
25	12646	47	11084.930154331
25	13275	48	11082.700348244
25	13904	49	11079.080938378
25	14533	50	11074.347322316
25	15162	51	11068.902175341
25	15836	52	11062.800374878
25	16514	53	11054.943583774
25	17192	54	11045.534292492
25	17976	55	11035.416110079
25	18760	56	11024.629775593
25	19536	57	11012.578532595
25	20312	58	11000.207603456
25	21174	59	10987.846164
25	22036	60	10975.474508964
25	22902	61	10962.724613472
25	23768	62	10949.655322997
25	24634	63	10936.595044271
25	25508	64	10923.536522787
25	26395	65	10910.683557663
25	27282	66	10898.845649607
25	28177	67	10887.149215634
25	29068	68	10875.626198317
25	29959	69	10866.380865587
25	30850	70	10857.968525019
25	31745	71	10849.550518849
25	32644	72	10841.138671848
25	33543	73	10834.026498496
25	34442	74	10828.316541832
25	35345	75	10822.796988193
25	36252	76	10819.134940971
25	37151	77	10815.475223222
25	38054	78	10814.280786615
25	38953	79	10814.223737092
25	39856	80	10814.240608862
25	40763	81	10815.413907715
25	41674	82	10816.588042069
25	42585	83	10817.76176071
25	43496	84	10818.935406938
25	44407	85	10819.156628556
25	45318	86	10818.860369256
25	46229	87	10816.650439216
25	47132	88	10810.272385969
25	48084	89	10806.982842948
25	49040	90	10801.443094085
25	49996	91	10795.697861184
25	50948	92	10788.762361509
25	51904	93	10780.0437467
25	52873	94	10770.162047471
25	53842	95	10759.637969948
25	54807	96	10747.951792911
25	55772	97	10735.573219548
54	1394	17	12.048067491362
54	1627	18	13.322772872531
54	1860	19	15.294883195571
54	2093	20	16.72029332605
54	2326	21	19.427661257155
54	2559	22	21.428821017699
54	2850	23	22.212798940785
54	3141	24	21.408090692797
54	3432	25	23.324919035305
54	3723	26	23.044405526164
54	4043	27	28.745703213317
54	4363	28	16.885668850248
54	4704	29	10.001387157526
54	5045	30	8.1115746990224
54	5386	31	9.9687147201638
54	5727	32	8.7026579178032
54	6068	33	10.113322269193
54	6417	34	8.4858516908474
54	6741	35	9.9784043748665
54	7061	36	8.2150514658311
54	7381	37	10.247517527391
54	7742	38	8.7935669603106
54	8132	39	9.0315797478565
54	8522	40	9.0456370321207
54	9079	41	9.1551425574809
54	9636	42	9.0424405615032
54	10206	43	9.9966293953308
54	10785	44	9.1432569160623
54	11401	45	9.7142093828015
54	12017	46	8.4346739868659
54	12646	47	7.1219502453585
54	13275	48	3.7370522989686
54	13904	49	5.0147700845446
54	14533	50	3.5924399962076
54	15162	51	4.768787722962
54	15836	52	5.0805797202598
54	16514	53	4.430375492048
54	17192	54	4.8508259563577
54	17976	55	5.9279678498283
54	18760	56	5.2542326402842
54	19536	57	5.8558397389327
54	20312	58	4.6350355261072
54	21174	59	6.7241738329195
54	22036	60	5.8502384856962
54	22902	61	5.1676579136959
54	23768	62	6.1718407752721
54	24634	63	5.8579748842416
54	25508	64	6.5846936624503
54	26395	65	6.5823928115418
54	27282	66	6.1655610147632
54	28177	67	6.1587050306693
54	29068	68	6.0916296026228
54	29959	69	7.2024119989081
54	30850	70	6.2741620526708
54	31745	71	6.1691771541246
54	32644	72	6.1697955784849
54	33543	73	6.8859507090005
54	34442	74	6.5447565808759
54	35345	75	6.8636748334191
54	36252	76	6.1629487647445
54	37151	77	6.5833692377504
54	38054	78	6.7609517925953
54	38953	79	6.4099877432944
54	39856	80	6.698851621714
54	40763	81	6.6609590135342
54	41674	82	6.5674547854372
54	42585	83	6.7298022079661
54	43496	84	6.5762019125809
54	44407	85	6.5405546240205
54	45318	86	6.3534568871444
54	46229	87	6.6171306804119
54	47132	88	3.9397415312057
54	48084	89	5.3712876715497
54	49040	90	4.4830821838765
54	49996	91	4.1795922223978
54	50948	92	5.3642169129234
54	51904	93	3.6339174720885
54	52873	94	6.6812237629458
54	53842	95	4.4629670999102
54	54807	96	5.0420090295143
54	55772	97	4.2124945366573
53	1394	17	1.9525840504398
53	1627	18	1.957653051368
53	1860	19	2.0632489059936
53	2093	20	2.055892424658
53	2326	21	2.2129477189621
53	2559	22	2.2368411964458
53	2850	23	2.1054520226969
53	3141	24	1.8174104970554
53	3432	25	1.8607886098022
53	3723	26	1.6694308934221
53	4043	27	2.0765022416436
53	4363	28	0.78331227396103
53	4704	29	0.074976825448687
53	5045	30	-0.11252520994516
53	5386	31	0.073713652957231
53	5727	32	-0.053035179225262
53	6068	33	0.086685234147588
53	6417	34	-0.075768203099727
53	6741	35	0.073050865293482
53	7061	36	-0.10205579167697
53	7381	37	0.10061598939821
53	7742	38	-0.045594697848429
53	8132	39	-0.020223050601778
53	8522	40	-0.017871403340251
53	9079	41	-0.0063373388932106
53	9636	42	-0.01700554020703
53	10206	43	0.076616392696742
53	10785	44	-0.01009695601882
53	11401	45	0.045859783336056
53	12017	46	-0.080813786687798
53	12646	47	-0.20563758687219
53	13275	48	-0.53377038421909
53	13904	49	-0.38492380300993
53	14533	50	-0.51568064592256
53	15162	51	-0.37528616395908
53	15836	52	-0.32837649769549
53	16514	53	-0.38413900657549
53	17192	54	-0.32506678597514
53	17976	55	-0.19738347781036
53	18760	56	-0.26162611376904
53	19536	57	-0.18626084415175
53	20312	58	-0.31157828764214
53	21174	59	-0.071094932701961
53	22036	60	-0.16354429459966
53	22902	61	-0.23213720605736
53	23768	62	-0.11172843302245
53	24634	63	-0.14187226196736
53	25508	64	-0.055190252669888
53	26395	65	-0.053060114332432
53	27282	66	-0.097233475611347
53	28177	67	-0.093916208339614
53	29068	68	-0.097499131180761
53	29959	69	0.031151352564486
53	30850	70	-0.074211267526202
53	31745	71	-0.082885955738085
53	32644	72	-0.07932916859221
53	33543	73	0.0048309052608175
53	34442	74	-0.033837220378942
53	35345	75	0.0036048300290048
53	36252	76	-0.075696315806823
53	37151	77	-0.024887502227138
53	38054	78	-0.0037172103730683
53	38953	79	-0.043286003687321
53	39856	80	-0.0086841266433737
53	40763	81	-0.01259735954207
53	41674	82	-0.022649619926767
53	42585	83	-0.0032526262592896
53	43496	84	-0.020533818404765
53	44407	85	-0.023691280290798
53	45318	86	-0.043943249088279
53	46229	87	-0.012051838052422
53	47132	88	-0.31882956686142
53	48084	89	-0.14120133859731
53	49040	90	-0.23909771079767
53	49996	91	-0.2660554742986
53	50948	92	-0.11637125832333
53	51904	93	-0.31757382010129
53	52873	94	0.057270007494417
53	53842	95	-0.20909196115126
53	54807	96	-0.13173333220098
53	55772	97	-0.22694370819919
51	1161	16	17.765270441112
51	1394	17	19.717854491551
51	1627	18	21.675507542919
51	1860	19	23.738756448913
51	2093	20	25.794648873571
51	2326	21	28.007596592533
51	2559	22	30.244437788979
51	2850	23	32.349889811676
51	3141	24	34.167300308731
51	3432	25	36.028088918533
51	3723	26	37.697519811955
51	4043	27	39.774022053599
51	4363	28	40.55733432756
51	4704	29	40.632311153009
51	5045	30	40.519785943063
51	5386	31	40.593499596021
51	5727	32	40.540464416795
51	6068	33	40.627149650943
51	6417	34	40.551381447843
51	6741	35	40.624432313137
51	7061	36	40.52237652146
51	7381	37	40.622992510858
51	7742	38	40.57739781301
51	8132	39	40.557174762408
51	8522	40	40.539303359068
51	9079	41	40.532966020174
51	9636	42	40.515960479967
51	10206	43	40.592576872664
51	10785	44	40.582479916645
51	11401	45	40.628339699981
51	12017	46	40.547525913293
51	12646	47	40.341888326421
51	13275	48	39.808117942202
51	13904	49	39.423194139192
51	14533	50	38.90751349327
51	15162	51	38.532227329311
51	15836	52	38.203850831615
51	16514	53	37.81971182504
51	17192	54	37.494645039065
51	17976	55	37.297261561254
51	18760	56	37.035635447485
51	19536	57	36.849374603333
51	20312	58	36.537796315691
51	21174	59	36.466701382989
51	22036	60	36.30315708839
51	22902	61	36.071019882332
51	23768	62	35.95929144931
51	24634	63	35.817419187342
51	25508	64	35.762228934673
51	26395	65	35.70916882034
51	27282	66	35.611935344729
51	28177	67	35.518019136389
51	29068	68	35.420520005208
51	29959	69	35.451671357773
51	30850	70	35.377460090247
51	31745	71	35.294574134509
51	32644	72	35.215244965916
51	33543	73	35.220075871177
51	34442	74	35.186238650798
51	35345	75	35.189843480827
51	36252	76	35.11414716502
51	37151	77	35.089259662793
51	38054	78	35.08554245242
51	38953	79	35.042256448733
51	39856	80	35.03357232209
51	40763	81	35.020974962547
51	41674	82	34.998325342621
51	42585	83	34.995072716361
51	43496	84	34.974538897957
51	44407	85	34.950847617666
51	45318	86	34.906904368578
51	46229	87	34.894852530525
51	47132	88	34.576022963664
51	48084	89	34.434821625066
51	49040	90	34.195723914269
51	49996	91	33.92966843997
51	50948	92	33.813297181647
51	51904	93	33.495723361546
51	52873	94	33.55299336904
51	53842	95	33.343901407889
51	54807	96	33.212168075688
51	55772	97	32.985224367489
41	973	15	1595.4496657573
41	1161	16	1595.4496657573
41	1394	17	1605.9864254331
41	1627	18	1617.8170185632
41	1860	19	1631.3272460396
41	2093	20	1646.6626222285
41	2326	21	1664.1135364152
41	2559	22	1683.6470705431
41	2850	23	1704.792152063
41	3141	24	1728.9066940587
41	3432	25	1755.1549006296
41	3723	26	1783.1359907747
41	4043	27	1814.5683963361
41	4363	28	1848.4341257779
41	4704	29	1884.4020376767
41	5045	30	1921.6721986627
41	5386	31	1959.5383734303
41	5727	32	1998.1127390433
41	6068	33	2037.2231989953
41	6417	34	2076.7988996882
41	6741	35	2116.9934149197
41	7061	36	2157.3835325564
41	7381	37	2197.7704262083
41	7742	38	2238.3528084451
41	8132	39	2278.9728449296
41	8522	40	2318.7795084577
41	9079	41	2359.2815222468
41	9636	42	2399.7874988066
41	10206	43	2440.2966622526
41	10785	44	2480.7833012101
41	11401	45	2521.2905721647
41	12017	46	2561.8061786658
41	12646	47	2602.3417648079
41	13275	48	2642.7583724514
41	13904	49	2682.8163112387
41	14533	50	2722.3465497404
41	15162	51	2761.2934076236
41	15836	52	2799.6419752184
41	16514	53	2837.4965925341
41	17192	54	2874.8791499149
41	17976	55	2911.4948514593
41	18760	56	2947.4257119919
41	19536	57	2982.8662021426
41	20312	58	3017.7821143577
41	21174	59	3052.1172335276
41	22036	60	3086.2467464557
41	22902	61	3120.2173497744
41	23768	62	3154.0138701219
41	24634	63	3187.4210607306
41	25508	64	3220.7012182322
41	26395	65	3253.9039369655
41	27282	66	3287.0161584956
41	28177	67	3320.4492051806
41	29068	68	3353.9052467866
41	29959	69	3387.3842644101
41	30850	70	3421.2331632551
41	31745	71	3455.5565745219
41	32644	72	3489.8111204996
41	33543	73	3524.0277408911
41	34442	74	3558.3584615307
41	35345	75	3593.0825957118
41	36252	76	3627.7629850441
41	37151	77	3662.6543419951
41	38054	78	3697.540930075
41	38953	79	3732.1942168165
41	39856	80	3767.3026604715
41	40763	81	3802.4045426713
41	41674	82	3837.4960833422
41	42585	83	3872.4180652007
41	43496	84	3907.3321462455
41	44407	85	3942.2187746855
41	45318	86	3977.1348605076
41	46229	87	4012.0464758886
41	47132	88	4046.8143641249
41	48084	89	4081.2989172341
41	49040	90	4115.5036657979
41	49996	91	4149.251063645
41	50948	92	4182.7310741878
41	51904	93	4215.8849060645
41	52873	94	4248.264096623
41	53842	95	4280.2912030637
41	54807	96	4311.8743208127
41	55772	97	4342.8837348901
40	973	15	11382.47803878
40	1161	16	11382.47803878
40	1394	17	11369.209042414
40	1627	18	11354.460608905
40	1860	19	11338.661914325
40	2093	20	11321.726150941
40	2326	21	11303.811899404
40	2559	22	11285.025549642
40	2850	23	11265.299964456
40	3141	24	11245.123976533
40	3432	25	11224.49178164
40	3723	26	11202.99807054
40	4043	27	11185.022383537
40	4363	28	11165.746947524
40	4704	29	11146.955350664
40	5045	30	11130.521080635
40	5386	31	11115.501458545
40	5727	32	11102.397416252
40	6068	33	11091.026530286
40	6417	34	11081.377373516
40	6741	35	11074.702441006
40	7061	36	11069.582689236
40	7381	37	11066.11688577
40	7742	38	11064.962697596
40	8132	39	11064.300521401
40	8522	40	11068.045248866
40	9079	41	11070.58278064
40	9636	42	11073.120560689
40	10206	43	11075.658540404
40	10785	44	11078.185267319
40	11401	45	11080.670558204
40	12017	46	11083.002652055
40	12646	47	11084.571540162
40	13275	48	11082.834886517
40	13904	49	11082.029772158
40	14533	50	11080.170454987
40	15162	51	11076.781230272
40	15836	52	11071.536370209
40	16514	53	11065.623765233
40	17192	54	11058.989572597
40	17976	55	11050.220075226
40	18760	56	11039.955461606
40	19536	57	11028.912753792
40	20312	58	11017.014776136
40	21174	59	11004.180638657
40	22036	60	10991.246764437
40	22902	61	10978.373111319
40	23768	62	10965.491087923
40	24634	63	10952.001405829
40	25508	64	10938.563019166
40	26395	65	10925.155901949
40	27282	66	10911.78532712
40	28177	67	10899.507383636
40	29068	68	10887.498602342
40	29959	69	10875.787445806
40	30850	70	10865.519997647
40	31745	71	10856.996239499
40	32644	72	10848.48958312
40	33543	73	10839.99234505
40	34442	74	10832.155678443
40	35345	75	10826.397807091
40	36252	76	10820.647189404
40	37151	77	10816.683802887
40	38054	78	10813.00368477
40	38953	79	10810.993265775
40	39856	80	10810.935874029
40	40763	81	10810.87849301
40	41674	82	10811.875073098
40	42585	83	10813.050586975
40	43496	84	10814.225834901
40	44407	85	10815.400158741
40	45318	86	10815.908371618
40	46229	87	10815.646336453
40	47132	88	10813.786348796
40	48084	89	10810.927459398
40	49040	90	10807.643762914
40	49996	91	10802.618012967
40	50948	92	10796.934942517
40	51904	93	10790.643997911
40	52873	94	10781.95367802
40	53842	95	10772.4891735
40	54807	96	10761.968310422
40	55772	97	10750.70730367
59	1627	18	13.178944263435
59	1860	19	14.476729213441
59	2093	20	16.184493715191
59	2326	21	17.857229704921
59	2559	22	21.108060465672
59	2850	23	22.124800257288
59	3141	24	25.458341882978
59	3432	25	27.48086529354
59	3723	26	19.42017661384
59	4043	27	7.7337809748641
59	4363	28	7.7495848555742
59	4704	29	7.7349964831105
59	5045	30	8.0867526302896
59	5386	31	7.320713482569
59	5727	32	7.9450096337766
59	6068	33	8.2944288498929
59	6417	34	7.0709446120191
59	6741	35	7.8441159643645
59	7061	36	7.6060189539553
59	7381	37	7.3592105030561
59	7742	38	8.6348125658727
59	8132	39	7.3243391207584
59	8522	40	7.5405749193317
59	9079	41	7.8070071837699
59	9636	42	8.1300081734556
59	10206	43	6.5939751709135
59	10785	44	8.9245920028633
59	11401	45	7.2294399367269
59	12017	46	6.9594107118552
59	12646	47	8.3369430909648
59	13275	48	7.3654135486944
59	13904	49	7.7308010886903
59	14533	50	7.922436744066
59	15162	51	7.7517821155902
59	15836	52	7.6260117773636
59	16514	53	7.1966585113165
59	17192	54	8.4707571842577
59	17976	55	7.7435061441857
59	18760	56	7.3481666300639
59	19536	57	8.1375100072189
59	20312	58	6.8370934622031
59	21174	59	8.8146365591661
59	22036	60	7.499285385272
59	22902	61	7.0982152701082
59	23768	62	8.4500434724665
59	24634	63	7.1222274718549
59	25508	64	7.773447302364
59	26395	65	7.0891561093191
59	27282	66	8.2326831307309
59	28177	67	7.6529794347796
59	29068	68	7.4310986892237
59	29959	69	8.3289400064524
59	30850	70	7.2088377609543
59	31745	71	8.1799631817861
59	32644	72	7.6019162233194
59	33543	73	7.0590908086557
59	34442	74	8.4976708616349
59	35345	75	7.287531386033
59	36252	76	7.8690338254658
59	37151	77	7.5610660897736
59	38054	78	8.0683763765948
59	38953	79	7.6950787561733
59	39856	80	7.5386741908047
59	40763	81	7.6488881432314
59	41674	82	7.4904591023535
59	42585	83	7.6349222359544
59	43496	84	7.5422956193299
59	44407	85	8.3974001868182
59	45318	86	7.6693414298122
59	46229	87	7.4302014283024
59	47132	88	6.9207643131965
59	48084	89	8.9286801372902
59	49040	90	6.6378121140788
59	49996	91	7.7574653214155
59	50948	92	7.6734050490731
59	51904	93	8.0137667750835
59	52873	94	7.4832085803155
59	53842	95	7.843247498827
59	54807	96	7.163243043286
59	55772	97	7.836998008647
58	1627	18	2.1160031419597
58	1860	19	2.0913707825937
58	2093	20	2.1269950019661
58	2326	21	2.1403036939097
58	2559	22	2.3447598922416
58	2850	23	2.2243212033296
58	3141	24	2.3791929380852
58	3432	25	2.3529594416613
58	3723	26	1.3102690945402
58	4043	27	0.0070220961933956
58	4363	28	0.0083780739340042
58	4704	29	0.0064407454803543
58	5045	30	0.043485858512582
58	5386	31	-0.039889750373554
58	5727	32	0.028279486682735
58	6068	33	0.063979516527617
58	6417	34	-0.068805102969058
58	6741	35	0.016479744133541
58	7061	36	-0.0095603111665667
58	7381	37	-0.035364845185541
58	7742	38	0.10158771820133
58	8132	39	-0.042056568874976
58	8522	40	-0.017179519124326
58	9079	41	0.011896911787332
58	9636	42	0.045578577811831
58	10206	43	-0.11973832191434
58	10785	44	0.13318324241555
58	11401	45	-0.052664542291318
58	12017	46	-0.079063783132
58	12646	47	0.070948792656417
58	13275	48	-0.035477833310146
58	13904	49	0.0049773124395927
58	14533	50	0.025090810772959
58	15162	51	0.0058175062062205
58	15836	52	-0.0078021971625262
58	16514	53	-0.053103351825847
58	17192	54	0.084619181009472
58	17976	55	0.003576411330144
58	18760	56	-0.038560754852369
58	19536	57	0.04696856900118
58	20312	58	-0.093327263393434
58	21174	59	0.12082282531773
58	22036	60	-0.02413867256837
58	22902	61	-0.065668407990593
58	23768	62	0.080778820824342
58	24634	63	-0.06378539172001
58	25508	64	0.0082925450988114
58	26395	65	-0.064840311894663
58	27282	66	0.059652107977314
58	28177	67	-0.0046395410201541
58	29068	68	-0.028006520541382
58	29959	69	0.068564119341318
58	30850	70	-0.053469790960662
58	31745	71	0.052070063946303
58	32644	72	-0.011642631213185
58	33543	73	-0.068826678686307
58	34442	74	0.087061182840259
58	35345	75	-0.045334617036858
58	36252	76	0.018486435944212
58	37151	77	-0.015053867746609
58	38054	78	0.039458443794864
58	38953	79	-0.0019486068282291
58	39856	80	-0.018456096772567
58	40763	81	-0.0059121032827534
58	41674	82	-0.022467649052849
58	42585	83	-0.0060932108550347
58	43496	84	-0.015657780237959
58	44407	85	0.07577378366841
58	45318	86	-0.004919272265397
58	46229	87	-0.030078232137022
58	47132	88	-0.082949504989664
58	48084	89	0.13399712898536
58	49040	90	-0.11534288311378
58	49996	91	0.0090115096885697
58	50948	92	-0.00033883075229824
58	51904	93	0.035824759618848
58	52873	94	-0.022181866562462
58	53842	95	0.017090121342335
58	54807	96	-0.056006331858221
58	55772	97	0.018232887634078
57	1394	17	18.13156670915
57	1627	18	20.247569851109
57	1860	19	22.338940633703
57	2093	20	24.465935635669
57	2326	21	26.606239329579
57	2559	22	28.95099922182
57	2850	23	31.17532042515
57	3141	24	33.554513363235
57	3432	25	35.907472804897
57	3723	26	37.217741899437
57	4043	27	37.22476399563
57	4363	28	37.233142069564
57	4704	29	37.239582815045
57	5045	30	37.283068673557
57	5386	31	37.243178923184
57	5727	32	37.271458409866
57	6068	33	37.335437926394
57	6417	34	37.266632823425
57	6741	35	37.283112567558
57	7061	36	37.273552256392
57	7381	37	37.238187411206
57	7742	38	37.339775129408
57	8132	39	37.297718560533
57	8522	40	37.280539041408
57	9079	41	37.292435953196
57	9636	42	37.338014531007
57	10206	43	37.218276209093
57	10785	44	37.351459451509
57	11401	45	37.298794909217
57	12017	46	37.219731126085
57	12646	47	37.290679918742
57	13275	48	37.255202085432
57	13904	49	37.260179397871
57	14533	50	37.285270208644
57	15162	51	37.29108771485
57	15836	52	37.283285517688
57	16514	53	37.230182165862
57	17192	54	37.314801346871
57	17976	55	37.318377758202
57	18760	56	37.279817003349
57	19536	57	37.32678557235
57	20312	58	37.233458308957
57	21174	59	37.354281134275
57	22036	60	37.330142461706
57	22902	61	37.264474053716
57	23768	62	37.34525287454
57	24634	63	37.28146748282
57	25508	64	37.289760027919
57	26395	65	37.224919716024
57	27282	66	37.284571824002
57	28177	67	37.279932282981
57	29068	68	37.25192576244
57	29959	69	37.320489881781
57	30850	70	37.267020090821
57	31745	71	37.319090154767
57	32644	72	37.307447523554
57	33543	73	37.238620844868
57	34442	74	37.325682027708
57	35345	75	37.280347410671
57	36252	76	37.298833846615
57	37151	77	37.283779978869
57	38054	78	37.323238422663
57	38953	79	37.321289815835
57	39856	80	37.302833719063
57	40763	81	37.29692161578
57	41674	82	37.274453966727
57	42585	83	37.268360755872
57	43496	84	37.252702975634
57	44407	85	37.328476759302
57	45318	86	37.323557487037
57	46229	87	37.2934792549
57	47132	88	37.21052974991
57	48084	89	37.344526878896
57	49040	90	37.229183995782
57	49996	91	37.23819550547
57	50948	92	37.237856674718
57	51904	93	37.273681434337
57	52873	94	37.251499567775
57	53842	95	37.268589689117
57	54807	96	37.212583357259
57	55772	97	37.230816244893
48	1161	16	1597.7320667291
48	1394	17	1597.7320667291
48	1627	18	1608.3960004774
48	1860	19	1620.4636195979
48	2093	20	1634.374042136
48	2326	21	1650.1837466893
48	2559	22	1668.1929474287
48	2850	23	1688.2673085427
48	3141	24	1710.0825603132
48	3432	25	1736.8677233651
48	3723	26	1764.0049397968
48	4043	27	1793.6994986354
48	4363	28	1825.2804212949
48	4704	29	1857.5748725127
48	5045	30	1890.6520035285
48	5386	31	1924.6701221906
48	5727	32	1959.1590879173
48	6068	33	1994.2447319255
48	6417	34	2029.8452081954
48	6741	35	2065.7673362632
48	7061	36	2102.3044556668
48	7381	37	2139.1301313613
48	7742	38	2176.0664782913
48	8132	39	2212.7324031421
48	8522	40	2249.9485074836
48	9079	41	2287.1829209014
48	9636	42	2323.6571305387
48	10206	43	2360.8889049551
48	10785	44	2398.1118611055
48	11401	45	2435.3236118621
48	12017	46	2472.5454186274
48	12646	47	2509.7713199684
48	13275	48	2547.016163623
48	13904	49	2584.2635336932
48	14533	50	2621.5186726222
48	15162	51	2658.7776257798
48	15836	52	2696.0451035022
48	16514	53	2733.2745696632
48	17192	54	2770.3613776896
48	17976	55	2807.2963005186
48	18760	56	2844.1109471519
48	19536	57	2880.8229235904
48	20312	58	2916.9831170877
48	21174	59	2952.8220520994
48	22036	60	2988.4078743993
48	22902	61	3023.6615780665
48	23768	62	3058.5719087802
48	24634	63	3093.4622904492
48	25508	64	3128.3552698445
48	26395	65	3163.1460345016
48	27282	66	3197.7166746317
48	28177	67	3232.3184546425
48	29068	68	3266.9307304068
48	29959	69	3301.6188514065
48	30850	70	3336.7015767198
48	31745	71	3371.8414570575
48	32644	72	3407.0491643575
48	33543	73	3443.2364744953
48	34442	74	3479.4197819013
48	35345	75	3515.6378551445
48	36252	76	3551.8452359992
48	37151	77	3588.6502230793
48	38054	78	3625.4431606332
48	38953	79	3662.4834000632
48	39856	80	3699.5789287628
48	40763	81	3736.2627794504
48	41674	82	3773.3661367103
48	42585	83	3810.3687638542
48	43496	84	3847.727580271
48	44407	85	3885.0733894532
48	45318	86	3922.4293124956
48	46229	87	3959.7811760197
48	47132	88	3997.1500945945
48	48084	89	4034.4843476346
48	49040	90	4071.7666751828
48	49996	91	4108.9567691025
48	50948	92	4145.9398357317
48	51904	93	4182.7874168074
48	52873	94	4219.4544700558
48	53842	95	4255.5261435703
48	54807	96	4291.2172491547
48	55772	97	4326.701318491
47	1161	16	11384.907072156
47	1394	17	11384.907072156
47	1627	18	11371.481970836
47	1860	19	11356.447170721
47	2093	20	11340.176753381
47	2326	21	11322.783536918
47	2559	22	11304.468986868
47	2850	23	11285.164046511
47	3141	24	11265.174978476
47	3432	25	11247.069014335
47	3723	26	11226.014251925
47	4043	27	11206.002191486
47	4363	28	11186.498423474
47	4704	29	11168.138760323
47	5045	30	11151.360712678
47	5386	31	11136.429994899
47	5727	32	11122.646401754
47	6068	33	11110.467919625
47	6417	34	11099.822203463
47	6741	35	11090.288165172
47	7061	36	11083.62698164
47	7381	37	11078.545142513
47	7742	38	11074.874127736
47	8132	39	11072.288542212
47	8522	40	11071.233499788
47	9079	41	11070.960203849
47	9636	42	11071.658141482
47	10206	43	11073.989597198
47	10785	44	11076.320500715
47	11401	45	11078.650702548
47	12017	46	11080.98153409
47	12646	47	11083.2694642
47	13275	48	11085.558024713
47	13904	49	11087.176274351
47	14533	50	11088.615967254
47	15162	51	11089.216667956
47	15836	52	11088.31390293
47	16514	53	11086.070764438
47	17192	54	11082.208222272
47	17976	55	11077.15102767
47	18760	56	11071.152468246
47	19536	57	11064.639639918
47	20312	58	11055.516811172
47	21174	59	11045.217514675
47	22036	60	11034.035215792
47	22902	61	11021.888002274
47	23768	62	11008.791927672
47	24634	63	10995.566817266
47	25508	64	10982.340722198
47	26395	65	10968.912933579
47	27282	66	10954.954397861
47	28177	67	10940.983288839
47	29068	68	10927.007941962
47	29959	69	10913.306488457
47	30850	70	10900.66110952
47	31745	71	10888.216927511
47	32644	72	10875.90610334
47	33543	73	10866.859148433
47	34442	74	10857.869960264
47	35345	75	10848.872135055
47	36252	76	10839.917903669
47	37151	77	10833.816662215
47	38054	78	10827.717418236
47	38953	79	10823.334648025
47	39856	80	10819.421491852
47	40763	81	10817.587068611
47	41674	82	10817.526196866
47	42585	83	10817.559382679
47	43496	84	10818.818225751
47	44407	85	10820.076630532
47	45318	86	10821.335376108
47	46229	87	10822.593984896
47	47132	88	10822.359056749
47	48084	89	10821.183272754
47	49040	90	10818.493851321
47	49996	91	10814.891759965
47	50948	92	10809.860661401
47	51904	93	10803.623008514
47	52873	94	10796.525584418
47	53842	95	10786.837147587
47	54807	96	10775.803644215
47	55772	97	10763.985201552
121	12017	46	11.537922451233
121	12646	47	13.751224651901
121	13275	48	14.813084120051
121	13904	49	17.852433626763
121	14533	50	18.023886847853
121	15162	51	19.16577253854
121	15836	52	21.861069843166
121	16514	53	24.043582319187
121	17192	54	24.066484488048
121	17976	55	26.025986642868
121	18760	56	14.462621699796
121	19536	57	7.3657196319789
121	20312	58	9.3267084919126
121	21174	59	7.5862638367362
121	22036	60	8.9732745801732
121	22902	61	7.2839879539786
121	23768	62	9.1671996605686
121	24634	63	7.9061143046599
121	25508	64	8.5249966151596
121	26395	65	8.0998735790335
121	27282	66	7.7230775685813
121	28177	67	9.0506965010713
121	29068	68	8.4819840938887
121	29959	69	8.1355261715559
121	30850	70	8.241504125818
121	31745	71	8.2398439815453
121	32644	72	8.827669114197
121	33543	73	7.7996455231004
121	34442	74	8.2964454977595
121	35345	75	7.608386248155
121	36252	76	9.4591314305961
121	37151	77	8.1562966031127
121	38054	78	7.8021887095143
121	38953	79	8.9214592762924
121	39856	80	7.3429874815968
121	40763	81	8.4901664438514
121	41674	82	9.0956706464149
121	42585	83	7.3992534947137
121	43496	84	9.0329173258494
121	44407	85	7.8034476176716
121	45318	86	7.7235175699965
121	46229	87	8.8571207808433
121	47132	88	8.8985578602589
121	48084	89	8.3748411337736
121	49040	90	7.6073834740486
121	49996	91	8.7254529682854
121	50948	92	7.7759819560231
121	51904	93	7.9595114532187
121	52873	94	8.9954694973288
121	53842	95	7.3994517575007
121	54807	96	8.54762777945
121	55772	97	8.2376600430168
120	12017	46	1.8715885991603
120	12646	47	2.053899995063
120	13275	48	1.999858093994
120	13904	49	2.2370989557425
120	14533	50	2.0250941364525
120	15162	51	1.9734760523261
120	15836	52	2.1080188892456
120	16514	53	2.1492834806652
120	17192	54	1.9484002506186
120	17976	55	1.969453944352
120	18760	56	0.66158447028184
120	19536	57	-0.096057309239406
120	20312	58	0.10932704530656
120	21174	59	-0.073996328894282
120	22036	60	0.071511626802383
120	22902	61	-0.10494536446756
120	23768	62	0.092955649495124
120	24634	63	-0.040514792189938
120	25508	64	0.024775973665527
120	26395	65	-0.019922028552969
120	27282	66	-0.057657575357005
120	28177	67	0.081076472861454
120	29068	68	0.019026018149454
120	29959	69	-0.017324310515541
120	30850	70	-0.0056597027555085
120	31745	71	-0.0055630172509709
120	32644	72	0.054803999253778
120	33543	73	-0.052954565008399
120	34442	74	0.00040727194980406
120	35345	75	-0.070178169094724
120	36252	76	0.12257098508184
120	37151	77	-0.016421822545816
120	38054	78	-0.051931218806423
120	38953	79	0.065045780354417
120	39856	80	-0.099667514587054
120	40763	81	0.022624607656617
120	41674	82	0.08341123017599
120	42585	83	-0.09417265000404
120	43496	84	0.077536958012494
120	44407	85	-0.051933126265645
120	45318	86	-0.057751654005848
120	46229	87	0.061149350039202
120	47132	88	0.062403563432163
120	48084	89	0.0059120948309968
120	49040	90	-0.072948597451905
120	49996	91	0.044950235530273
120	50948	92	-0.054372123704525
120	51904	93	-0.033031876129101
120	52873	94	0.074600563006243
120	53842	95	-0.092457960520406
120	54807	96	0.029660798495172
120	55772	97	-0.0035106884676495
117	11401	45	17.639546840333
117	12017	46	19.511135439493
117	12646	47	21.565035434556
117	13275	48	23.56489352855
117	13904	49	25.801992484293
117	14533	50	27.827086620745
117	15162	51	29.800562673071
117	15836	52	31.908581562317
117	16514	53	34.057865042982
117	17192	54	36.006265293601
117	17976	55	37.975719237953
117	18760	56	38.637303708235
117	19536	57	38.541246398995
117	20312	58	38.650573444302
117	21174	59	38.576577115408
117	22036	60	38.64808874221
117	22902	61	38.543143377742
117	23768	62	38.636099027237
117	24634	63	38.595584235048
117	25508	64	38.620360208713
117	26395	65	38.60043818016
117	27282	66	38.542780604803
117	28177	67	38.623857077665
117	29068	68	38.642883095814
117	29959	69	38.625558785298
117	30850	70	38.619899082543
117	31745	71	38.614336065292
117	32644	72	38.669140064546
117	33543	73	38.616185499537
117	34442	74	38.616592771487
117	35345	75	38.546414602392
117	36252	76	38.668985587474
117	37151	77	38.652563764928
117	38054	78	38.600632546122
117	38953	79	38.665678326476
117	39856	80	38.566010811889
117	40763	81	38.588635419546
117	41674	82	38.672046649722
117	42585	83	38.577873999718
117	43496	84	38.65541095773
117	44407	85	38.603477831465
117	45318	86	38.545726177459
117	46229	87	38.606875527498
117	47132	88	38.66927909093
117	48084	89	38.675191185761
117	49040	90	38.602242588309
117	49996	91	38.64719282384
117	50948	92	38.592820700135
117	51904	93	38.559788824006
117	52873	94	38.634389387012
117	53842	95	38.541931426492
117	54807	96	38.571592224987
117	55772	97	38.568081536519
111	10785	44	1596.0419453363
111	11401	45	1596.0419453363
111	12017	46	1606.4607114515
111	12646	47	1618.1581598962
111	13275	48	1631.6022390514
111	13904	49	1646.8627610957
111	14533	50	1664.1824018321
111	15162	51	1683.6431044205
111	15836	52	1704.5418555656
111	16514	53	1728.3038501169
111	17192	54	1754.2901266528
111	17976	55	1782.1700741474
111	18760	56	1813.6873612444
111	19536	57	1847.2792770508
111	20312	58	1881.508972456
111	21174	59	1916.9187771889
111	22036	60	1952.7980846957
111	22902	61	1989.3794042102
111	23768	62	2026.5015040857
111	24634	63	2063.9716796962
111	25508	64	2102.065843036
111	26395	65	2140.4567877552
111	27282	66	2179.0112503724
111	28177	67	2217.395172667
111	29068	68	2255.9862077136
111	29959	69	2294.6026572494
111	30850	70	2332.4142193063
111	31745	71	2370.947772405
111	32644	72	2409.4963986821
111	33543	73	2448.0378427137
111	34442	74	2486.5811658818
111	35345	75	2525.1220871161
111	36252	76	2563.6635031613
111	37151	77	2602.2498238356
111	38054	78	2640.8359200838
111	38953	79	2679.4116091254
111	39856	80	2717.9754239749
111	40763	81	2756.4422455488
111	41674	82	2794.6746497096
111	42585	83	2832.8652144284
111	43496	84	2870.8728473996
111	44407	85	2908.4902379008
111	45318	86	2945.6228442172
111	46229	87	2982.5071293384
111	47132	88	3019.0536309505
111	48084	89	3055.226262374
111	49040	90	3091.3349289405
111	49996	91	3127.4408889934
111	50948	92	3163.444191438
111	51904	93	3199.2464650026
111	52873	94	3235.0522367983
111	53842	95	3270.8636088496
111	54807	96	3306.8542995179
111	55772	97	3343.1549444224
110	10785	44	11381.732178019
110	11401	45	11381.732178019
110	12017	46	11368.611771559
110	12646	47	11354.061682407
110	13275	48	11338.340340864
110	13904	49	11321.510400466
110	14533	50	11303.745668183
110	15162	51	11285.029364055
110	15836	52	11265.509380795
110	16514	53	11245.628359825
110	17192	54	11225.156058904
110	17976	55	11203.740040664
110	18760	56	11185.57840165
110	19536	57	11166.403332294
110	20312	58	11148.274690761
110	21174	59	11132.491311668
110	22036	60	11117.90405951
110	22902	61	11105.034910285
110	23768	62	11093.871942216
110	24634	63	11083.9277976
110	25508	64	11076.974350509
110	26395	65	11071.720357338
110	27282	66	11068.045349317
110	28177	67	11065.558745783
110	29068	68	11064.461192761
110	29959	69	11064.414347982
110	30850	70	11068.899490637
110	31745	71	11071.313694431
110	32644	72	11073.72884259
110	33543	73	11076.143540766
110	34442	74	11078.540990622
110	35345	75	11080.905637709
110	36252	76	11083.074537886
110	37151	77	11084.567981681
110	38054	78	11086.06141679
110	38953	79	11085.414798914
110	39856	80	11083.769804898
110	40763	81	11080.779357752
110	41674	82	11075.547439862
110	42585	83	11069.796609567
110	43496	84	11063.052710476
110	44407	85	11054.398009734
110	45318	86	11043.899490739
110	46229	87	11032.500298654
110	47132	88	11020.066241528
110	48084	89	11006.531208356
110	49040	90	10992.845807138
110	49996	91	10979.161431704
110	50948	92	10965.237871989
110	51904	93	10950.78155344
110	52873	94	10936.323822368
110	53842	95	10921.863830013
110	54807	96	10907.913799011
110	55772	97	10894.828682824
168	55772	97	9744.6457608071
167	55772	97	3331.0410764223
116	11401	45	12.386466081588
116	12017	46	12.241886838137
116	12646	47	13.852842500615
116	13275	48	14.749393523237
116	13904	49	17.289299773004
116	14533	50	18.808845104894
116	15162	51	21.192639729636
116	15836	52	20.681536789269
116	16514	53	6.7033100723493
116	17192	54	5.3802325572762
116	17976	55	6.2476882562913
116	18760	56	5.6875021418687
116	19536	57	6.0492300186062
116	20312	58	6.1036957167942
116	21174	59	6.4542688303029
116	22036	60	5.6103875930525
116	22902	61	6.6250857724549
116	23768	62	6.0510430690587
116	24634	63	5.2567831551392
116	25508	64	5.8385978337098
116	26395	65	6.1727104465782
116	27282	66	6.0292384303136
116	28177	67	6.3215406500993
116	29068	68	6.5305745143908
116	29959	69	5.3965031641746
116	30850	70	6.2449115328709
116	31745	71	6.0071686282355
116	32644	72	5.7563861100342
116	33543	73	6.2615236397371
116	34442	74	5.7323816334477
116	35345	75	5.68391940565
116	36252	76	6.3317497367362
116	37151	77	5.7394870579267
116	38054	78	6.3321350168362
116	38953	79	6.1616957015321
116	39856	80	5.8261925492904
116	40763	81	6.158989981406
116	41674	82	6.1309829729728
116	42585	83	6.0786295267285
116	43496	84	6.4040702525837
116	44407	85	5.6188525731795
116	45318	86	5.5073973031942
116	46229	87	6.2734918935526
116	47132	88	6.3087118182913
116	48084	89	5.3571313931658
116	49040	90	6.8761303987726
116	49996	91	5.8671970548792
116	50948	92	5.9452998567372
116	51904	93	5.397842269875
116	52873	94	6.7726741029184
116	53842	95	6.1129723199176
116	54807	96	5.2488309016311
116	55772	97	6.4775669006061
115	11401	45	2.0614078341844
115	12017	46	1.8010627302877
115	12646	47	1.8812451873114
115	13275	48	1.8290313915699
115	13904	49	2.0107371033984
115	14533	50	2.0122865012032
115	15162	51	2.1098803494172
115	15836	52	1.8495783491674
115	16514	53	0.084677810256835
115	17192	54	-0.07831785170594
115	17976	55	0.02961225205334
115	18760	56	-0.039205831647848
115	19536	57	0.0060992571990894
115	20312	58	0.012409816463482
115	21174	59	0.054083848115987
115	22036	60	-0.049885723728224
115	22902	61	0.074421753971841
115	23768	62	0.0022128067188874
115	24634	63	-0.093704158666078
115	25508	64	-0.019565552601122
115	26395	65	0.021584287849251
115	27282	66	0.0033641240582796
115	28177	67	0.038442623380107
115	29068	68	0.061895604752941
115	29959	69	-0.077287775862501
115	30850	70	0.028226686641574
115	31745	71	-0.0015998122189202
115	32644	72	-0.031771468187216
115	33543	73	0.030447087809449
115	34442	74	-0.034614284310962
115	35345	75	-0.039046466597355
115	36252	76	0.04076600900153
115	37151	77	-0.032401766076219
115	38054	78	0.040450606320519
115	38953	79	0.018188912309711
115	39856	80	-0.023017660269986
115	40763	81	0.018068990618922
115	41674	82	0.013926656693222
115	42585	83	0.0070319181401288
115	43496	84	0.045864083720375
115	44407	85	-0.050574930105363
115	45318	86	-0.061982866835315
115	46229	87	0.033045107922518
115	47132	88	0.035860018266831
115	48084	89	-0.080435331014449
115	49040	90	0.10598818256985
115	49996	91	-0.019892915161329
115	50948	92	-0.009653472064528
115	51904	93	-0.075350133930336
115	52873	94	0.093524640919647
115	53842	95	0.010171529822983
115	54807	96	-0.094506495869723
115	55772	97	0.057660065020904
114	10785	44	17.382020822237
114	11401	45	19.443428656422
114	12017	46	21.244491386709
114	12646	47	23.125736574021
114	13275	48	24.954767965591
114	13904	49	26.965505068989
114	14533	50	28.977791570192
114	15162	51	31.08767191961
114	15836	52	32.937250268777
114	16514	53	33.021928079034
114	17192	54	32.943610227328
114	17976	55	32.973222479381
114	18760	56	32.934016647733
114	19536	57	32.940115904932
114	20312	58	32.952525721396
114	21174	59	33.006609569512
114	22036	60	32.956723845784
114	22902	61	33.031145599756
114	23768	62	33.033358406474
114	24634	63	32.939654247808
114	25508	64	32.920088695207
114	26395	65	32.941672983056
114	27282	66	32.945037107115
114	28177	67	32.983479730495
114	29068	68	33.045375335248
114	29959	69	32.968087559385
114	30850	70	32.996314246027
114	31745	71	32.994714433808
114	32644	72	32.962942965621
114	33543	73	32.99339005343
114	34442	74	32.958775769119
114	35345	75	32.919729302522
114	36252	76	32.960495311523
114	37151	77	32.928093545447
114	38054	78	32.968544151768
114	38953	79	32.986733064077
114	39856	80	32.963715403807
114	40763	81	32.981784394426
114	41674	82	32.99571105112
114	42585	83	33.00274296926
114	43496	84	33.04860705298
114	44407	85	32.998032122875
114	45318	86	32.936049256039
114	46229	87	32.969094363962
114	47132	88	33.004954382229
114	48084	89	32.924519051214
114	49040	90	33.030507233784
114	49996	91	33.010614318623
114	50948	92	33.000960846558
114	51904	93	32.925610712628
114	52873	94	33.019135353548
114	53842	95	33.029306883371
114	54807	96	32.934800387501
114	55772	97	32.992460452522
108	10206	43	9744.4892091966
108	10785	44	9744.4892091966
108	11401	45	9737.8941085516
108	12017	46	9730.2478635123
108	12646	47	9721.3892152179
108	13275	48	9711.0630631746
108	13904	49	9699.7672660802
108	14533	50	9686.8037096694
108	15162	51	9672.4477885885
108	15836	52	9656.762790801
108	16514	53	9639.7444760997
108	17192	54	9620.7375999031
108	17976	55	9600.9322763831
108	18760	56	9580.7738492694
108	19536	57	9559.7653607854
108	20312	58	9538.4444420799
108	21174	59	9516.1758268328
108	22036	60	9493.2320819524
108	22902	61	9469.6015745317
108	23768	62	9445.1305919309
108	24634	63	9420.1029655022
108	25508	64	9394.6365144984
108	26395	65	9368.5441846816
108	27282	66	9341.9283500873
108	28177	67	9314.6284186465
108	29068	68	9287.1140529819
108	29959	69	9258.8130621665
108	30850	70	9230.3854802648
108	31745	71	9201.3289415021
108	32644	72	9171.8379950114
108	33543	73	9141.9766417335
108	34442	74	9111.9833763519
108	35345	75	9081.6300986724
108	36252	76	9050.9247788722
108	37151	77	9019.8902665719
108	38054	78	8988.5685163432
108	38953	79	8957.0765211837
108	39856	80	8925.3258954659
108	40763	81	8893.3430510194
108	41674	82	8861.2377201328
108	42585	83	8828.8895297843
108	43496	84	8796.5647670751
108	44407	85	8764.2175251992
108	45318	86	8731.5244070226
108	46229	87	8698.795190819
108	47132	88	8666.0529450185
108	48084	89	8633.2953068596
108	49040	90	8600.4202416809
108	49996	91	8567.4799026873
108	50948	92	8534.5954564076
108	51904	93	8502.1891863693
108	52873	94	8469.2891278447
[...]
70	44407	85	7058.7248864395
70	45318	86	7056.0390742116
70	46229	87	7049.2719251558
70	47132	88	7040.7704398924
70	48084	89	7030.5106347948
70	49040	90	7018.7596827663
70	49996	91	7006.7895530253
70	50948	92	6994.8051781017
70	51904	93	6982.8104660221
70	52873	94	6970.8186425493
70	53842	95	6958.8330832886
70	54807	96	6946.8580870834
70	55772	97	6934.840856787
50	1161	16	4.2355610419447
50	1394	17	4.8880172326784
50	1627	18	6.0278608491044
50	1860	19	2.4870320377392
50	2093	20	1.8052635389354
50	2326	21	1.4868045847639
50	2559	22	1.6983259502685
50	2850	23	1.7268510826485
50	3141	24	1.7916208463929
50	3432	25	1.7373415248143
50	3723	26	1.6827793577792
50	4043	27	1.4726696287747
50	4363	28	1.6312681177443
50	4704	29	1.7533947890725
50	5045	30	1.8180392765724
50	5386	31	1.4903312118884
50	5727	32	1.837125231731
50	6068	33	1.6360561370195
50	6417	34	1.8011483610606
50	6741	35	1.7220928141621
50	7061	36	1.6985005831867
50	7381	37	1.5241425888145
50	7742	38	1.6137940861612
50	8132	39	0.973
50	8522	40	0.973
50	9079	41	0.973
50	9636	42	2.8252136166829
50	10206	43	4.6751409421482
50	10785	44	6.0583275352627
50	11401	45	3.9105330222034
50	12017	46	1.7522536397023
50	12646	47	1.6678095026559
50	13275	48	0.973
50	13904	49	0.973
50	14533	50	0.973
50	15162	51	4.256696891155
50	15836	52	5.3323227743801
50	16514	53	6.2645646797913
50	17192	54	2.6584230263608
50	17976	55	1.613097332661
50	18760	56	1.7039977582667
50	19536	57	1.7867022510816
50	20312	58	1.6433044871998
50	21174	59	0.973
50	22036	60	0.973
50	22902	61	0.973
50	23768	62	2.8919135142584
50	24634	63	5.1365751584753
50	25508	64	6.1865924089664
50	26395	65	2.9243582070224
50	27282	66	0.973
50	28177	67	0.973
50	29068	68	2.3368326608534
50	29959	69	5.3205776022574
50	30850	70	6.0044017619201
50	31745	71	7.2006135691907
50	32644	72	4.3354467585112
50	33543	73	1.7508285889134
50	34442	74	1.8618737832094
50	35345	75	1.9333189428273
50	36252	76	1.8041902098297
50	37151	77	2.0000862981175
50	38054	78	1.7202050415209
50	38953	79	1.7976178412324
50	39856	80	2.0912884540925
50	40763	81	1.7480774394936
50	41674	82	1.9970383025202
50	42585	83	1.752320566475
50	43496	84	1.9821131916585
50	44407	85	1.6618251479823
50	45318	86	1.8379985825469
50	46229	87	2.0240787119095
50	47132	88	1.656665429906
50	48084	89	1.9868443370818
50	49040	90	1.6220715499028
50	49996	91	0.973
50	50948	92	1.7461432536679
50	51904	93	1.4385822199184
50	52873	94	1.9888106616521
50	53842	95	1.6947801647218
50	54807	96	1.474757460988
50	55772	97	1.9018733647165
49	1161	16	1.9274956570077
49	1394	17	1.7776190117048
49	1627	18	1.8673779698252
49	1860	19	0.33085941265776
49	2093	20	0.047143086397554
49	2326	21	-0.082063550644088
49	2559	22	0.0055577907571571
49	2850	23	0.016832487368957
49	3141	24	0.042150335514453
49	3432	25	0.019125694024842
49	3723	26	-0.0032336904178383
49	4043	27	-0.087764125408139
49	4363	28	-0.021259288704023
49	4704	29	0.028594298840035
49	5045	30	0.053453413778916
49	5386	31	-0.079976794579999
49	5727	32	0.062009585201741
49	6068	33	-0.0205516400747
49	6417	34	0.046202297685667
49	6741	35	0.013155517578125
49	7061	36	0.0033291123853996
49	7381	37	-0.066833183851559
49	7742	38	-0.028835633192211
49	8132	39	-0.55786719448939
49	8522	40	-3.011495509149
49	9079	41	-2.3960094618617
49	9636	42	1.1642423117365
49	10206	43	1.877622519373
49	10785	44	2.0286238519708
49	11401	45	0.92277378055821
49	12017	46	0.026863476557191
49	12646	47	-0.0078198215714647
49	13275	48	-1.3356032336978
49	13904	49	-2.9034558672433
49	14533	50	-2.343234752935
49	15162	51	2.1305586636131
49	15836	52	2.0696646911767
49	16514	53	1.9855706113647
49	17192	54	0.40180566449222
49	17976	55	-0.029767560951877
49	18760	56	0.0076986428513184
49	19536	57	0.040542972523253
49	20312	58	-0.018129968044814
49	21174	59	-0.55880838782716
49	22036	60	-2.9579085215706
49	22902	61	-2.5267961799415
49	23768	62	1.2116193597222
49	24634	63	2.0760969379055
49	25508	64	2.0303272147453
49	26395	65	0.52833362585007
49	27282	66	-3.0983011314876
49	28177	67	-2.5614623461719
49	29068	68	0.81139556049949
49	29959	69	2.2085755773075
49	30850	70	1.9810347064794
49	31745	71	2.0111097600893
49	32644	72	0.85567466072641
49	33543	73	-0.033993925338144
49	34442	74	0.0042473507230163
49	35345	75	0.02800709708128
49	36252	76	-0.016027738049161
49	37151	77	0.049845344845671
49	38054	78	-0.045135950748808
49	38953	79	-0.017913284059615
49	39856	80	0.080538484181744
49	40763	81	-0.036246415441857
49	41674	82	0.047797284673434
49	42585	83	-0.035134996541309
49	43496	84	0.042432464601006
49	44407	85	-0.065669910719153
49	45318	86	-0.0048326689354141
49	46229	87	0.057276393598876
49	47132	88	-0.067083167098462
49	48084	89	0.045250797769986
49	49040	90	-0.07822612918215
49	49996	91	-1.9552887378256
49	50948	92	0.02325944743119
49	51904	93	-0.10137906034011
49	52873	94	0.12238473264035
49	53842	95	0.001376675220671
49	54807	96	-0.08715000787517
49	55772	97	0.086586067061871
46	973	15	4.1279873023755
46	1161	16	6.0554829593832
46	1394	17	7.833101971088
46	1627	18	9.7004799409132
46	1860	19	10.031339353571
46	2093	20	10.078482439969
46	2326	21	9.9964188893244
46	2559	22	10.001976680082
46	2850	23	10.018809167451
46	3141	24	10.060959502965
46	3432	25	10.08008519699
46	3723	26	10.076851506572
46	4043	27	9.9890873811639
46	4363	28	9.9678280924598
46	4704	29	9.9964223912999
46	5045	30	10.049875805079
46	5386	31	9.9698990104988
46	5727	32	10.031908595701
46	6068	33	10.011356955626
46	6417	34	10.057559253311
46	6741	35	10.07071477089
46	7061	36	10.074043883275
46	7381	37	10.007210699423
46	7742	38	9.9783750662312
46	8132	39	9.4205078717419
46	8522	40	6.4090123625929
46	9079	41	4.0130029007311
46	9636	42	5.1772452124677
46	10206	43	7.0548677318406
46	10785	44	9.0834915838114
46	11401	45	10.00626536437
46	12017	46	10.033128840927
46	12646	47	10.025309019355
46	13275	48	8.6897057856576
46	13904	49	5.7862499184142
46	14533	50	3.4430151654793
46	15162	51	5.5735738290924
46	15836	52	7.6432385202691
46	16514	53	9.6288091316338
46	17192	54	10.030614796126
46	17976	55	10.000847235174
46	18760	56	10.008545878025
46	19536	57	10.049088850549
46	20312	58	10.030958882504
46	21174	59	9.4721504946768
46	22036	60	6.5142419731061
46	22902	61	3.9874457931646
46	23768	62	5.1990651528868
46	24634	63	7.2751620907923
46	25508	64	9.3054893055377
46	26395	65	9.8338229313878
46	27282	66	6.7355217999002
46	28177	67	4.1740594537283
46	29068	68	4.9854550142277
46	29959	69	7.1940305915352
46	30850	70	9.1750652980146
46	31745	71	11.186175058104
46	32644	72	12.04184971883
46	33543	73	12.007855793492
46	34442	74	12.012103144215
46	35345	75	12.040110241297
46	36252	76	12.024082503247
46	37151	77	12.073927848093
46	38054	78	12.028791897344
46	38953	79	12.010878613285
46	39856	80	12.091417097466
46	40763	81	12.055170682024
46	41674	82	12.102967966698
46	42585	83	12.067832970157
46	43496	84	12.110265434758
46	44407	85	12.044595524038
46	45318	86	12.039762855103
46	46229	87	12.097039248702
46	47132	88	12.029956081603
46	48084	89	12.075206879373
46	49040	90	11.996980750191
46	49996	91	10.041692012366
46	50948	92	10.064951459797
46	51904	93	9.9635723994568
46	52873	94	10.085957132097
46	53842	95	10.087333807318
46	54807	96	10.000183799443
46	55772	97	10.086769866504
36	839	14	5382.8709882216
36	973	15	5382.8709882216
36	1161	16	5379.942570647
36	1394	17	5375.2342770518
36	1627	18	5368.8633411065
36	1860	19	5367.5645413089
36	2093	20	5371.5012644521
36	2326	21	5376.1715348324
36	2559	22	5381.1099244907
36	2850	23	5387.2991430555
36	3141	24	5393.4474363573
36	3432	25	5400.5876991113
36	3723	26	5407.1797190874
36	4043	27	5413.9371637476
36	4363	28	5421.1552747705
36	4704	29	5428.8835661721
36	5045	30	5437.3992604241
36	5386	31	5446.1650041343
36	5727	32	5454.921135233
36	6068	33	5463.6910569853
36	6417	34	5472.4603108076
36	6741	35	5481.2426914515
36	7061	36	5489.9976831285
36	7381	37	5498.7768111537
36	7742	38	5507.518550007
36	8132	39	5514.520924223
36	8522	40	5519.3617141343
36	9079	41	5523.1412970568
36	9636	42	5525.6032298195
36	10206	43	5527.6153734945
36	10785	44	5530.5400915517
36	11401	45	5533.2222240879
36	12017	46	5536.365262267
36	12646	47	5539.5755695792
36	13275	48	5542.786594539
36	13904	49	5545.8807762386
36	14533	50	5548.1519266737
36	15162	51	5549.6827747752
36	15836	52	5552.4025130494
36	16514	53	5558.97786464
36	17192	54	5567.266275101
36	17976	55	5576.7455098269
36	18760	56	5586.2642429606
36	19536	57	5595.7720906639
36	20312	58	5605.7281226662
36	21174	59	5615.745193097
36	22036	60	5625.6862617572
36	22902	61	5633.5348041306
36	23768	62	5638.6360977461
36	24634	63	5642.810296025
36	25508	64	5648.9561995413
36	26395	65	5651.4174041866
36	27282	66	5653.590511113
36	28177	67	5655.3762794359
36	29068	68	5656.5487573098
36	29959	69	5657.4470005552
36	30850	70	5659.0936127086
36	31745	71	5664.4446654188
36	32644	72	5674.7006071887
36	33543	73	5686.5791735403
36	34442	74	5698.6111343914
36	35345	75	5710.6573067172
36	36252	76	5722.6930600475
36	37151	77	5734.7036882212
36	38054	78	5746.7251618721
36	38953	79	5758.6412576616
36	39856	80	5770.5013404699
36	40763	81	5782.352662303
36	41674	82	5794.2023091675
36	42585	83	5806.0119755748
36	43496	84	5817.7920897068
36	44407	85	5829.6189550456
36	45318	86	5841.3139783287
36	46229	87	5852.8966682736
36	47132	88	5864.5245419415
36	48084	89	5876.1226168774
36	49040	90	5887.7093446791
36	49996	91	5899.2941408922
36	50948	92	5910.2430206765
36	51904	93	5916.1418433391
36	52873	94	5924.2643913858
36	53842	95	5934.1593929656
36	54807	96	5944.1074557904
36	55772	97	5953.4859945549
35	839	14	7704.4115648982
35	973	15	7704.4115648982
35	1161	16	7705.7214977306
35	1394	17	7707.8276005006
35	1627	18	7710.7333287609
35	1860	19	7718.2382843219
35	2093	20	7727.3233734719
35	2326	21	7736.0997614259
35	2559	22	7744.704351588
35	2850	23	7752.4183841714
35	3141	24	7760.1827019796
35	3432	25	7767.1247709144
35	3723	26	7774.5961368388
35	4043	27	7781.8933553715
35	4363	28	7788.6905658604
35	4704	29	7794.8104471296
35	5045	30	7799.7711880298
35	5386	31	7804.6488617945
35	5727	32	7809.5211866483
35	6068	33	7814.401185273
35	6417	34	7819.2808122298
35	6741	35	7824.1677435702
35	7061	36	7829.0394343959
35	7381	37	7833.9245558256
35	7742	38	7838.7888721543
35	8132	39	7834.2712718585
35	8522	40	7825.578736675
35	9079	41	7818.7917952597
35	9636	42	7814.3709388393
35	10206	43	7810.7577620625
35	10785	44	7805.1725770617
35	11401	45	7797.4789956424
35	12017	46	7788.1812973355
35	12646	47	7778.6846042761
35	13275	48	7769.1857882802
35	13904	49	7760.0326166323
35	14533	50	7753.3141263207
35	15162	51	7749.1174494642
35	15836	52	7745.7663092281
35	16514	53	7746.2380527157
35	17192	54	7748.9568358134
35	17976	55	7752.0662357727
35	18760	56	7755.188592089
35	19536	57	7758.3073777418
35	20312	58	7758.864167779
35	21174	59	7759.0301965707
35	22036	60	7759.1949656645
35	22902	61	7759.3250520022
35	23768	62	7759.40960383
35	24634	63	7759.4787894369
35	25508	64	7758.2364356449
35	26395	65	7750.2995352593
35	27282	66	7740.6619169134
35	28177	67	7732.7421255118
35	29068	68	7727.5422459613
35	29959	69	7723.558582997
35	30850	70	7717.5482833531
35	31745	71	7711.8400003343
35	32644	72	7711.8661465031
35	33543	73	7712.0559808258
35	34442	74	7712.2482665841
35	35345	75	7712.4407794596
35	36252	76	7712.6405103222
35	37151	77	7712.8295590577
35	38054	78	7713.0187785023
35	38953	79	7714.3172012246
35	39856	80	7716.286380059
35	40763	81	7718.3644203159
35	41674	82	7720.4487981465
35	42585	83	7722.6649342918
35	43496	84	7725.143440378
35	44407	85	7727.3245398028
35	45318	86	7729.6360700466
35	46229	87	7732.6936672909
35	47132	88	7735.9535922692
35	48084	89	7739.2051630433
35	49040	90	7742.4535525989
35	49996	91	7745.7014006253
35	50948	92	7741.8810123781
35	51904	93	7734.1751995466
35	52873	94	7728.4251424728
35	53842	95	7726.7145311714
35	54807	96	7727.1877462722
35	55772	97	7729.6209045328
95	8522	40	3.7539440348818
95	9079	41	5.1191669597086
95	9636	42	5.9345294584429
95	10206	43	0.973
95	10785	44	0.973
95	11401	45	0.973
95	12017	46	3.4689477466756
95	12646	47	4.9381044446834
95	13275	48	5.7387896923217
95	13904	49	6.7117793312344
95	14533	50	8.2856506023568
95	15162	51	0.973
95	15836	52	0.973
95	16514	53	0.973
95	17192	54	0.973
95	17976	55	5.0347462599491
95	18760	56	5.7487657923869
95	19536	57	6.7385041299042
95	20312	58	7.5534904856745
95	21174	59	6.1388126937275
95	22036	60	2.0728647526931
95	22902	61	1.9432756342832
95	23768	62	2.1085129933962
95	24634	63	1.9523195133045
95	25508	64	1.953762127394
95	26395	65	2.1307311586138
95	27282	66	1.9526278070505
95	28177	67	1.7423697940812
95	29068	68	2.0259801292494
95	29959	69	1.9393238204521
95	30850	70	2.334839470895
95	31745	71	1.8577870189182
95	32644	72	1.8813481064216
95	33543	73	2.0283720230977
95	34442	74	1.9780613274326
95	35345	75	2.1330184376222
95	36252	76	1.9668445261293
95	37151	77	2.146352502808
95	38054	78	1.8377534370149
95	38953	79	2.0217331359204
95	39856	80	2.1126598698307
95	40763	81	1.8129918174294
95	41674	82	1.9939388097714
95	42585	83	2.2226816804898
95	43496	84	1.8367054696378
95	44407	85	2.0145442641379
95	45318	86	2.2346892651352
95	46229	87	2.0300943935803
95	47132	88	2.0957768673289
95	48084	89	1.8450585638416
95	49040	90	0.973
95	49996	91	0.973
95	50948	92	0.973
95	51904	93	0.973
95	52873	94	0.973
95	53842	95	0.973
95	54807	96	0.973
95	55772	97	2.6890623539162
94	8522	40	1.6808483830001
94	9079	41	1.9308359434549
94	9636	42	1.8546915894677
94	10206	43	-0.25569144577192
94	10785	44	-2.8896244413044
94	11401	45	-2.5215369662622
94	12017	46	1.5730229052643
94	12646	47	1.9231302807317
94	13275	48	1.8432400298235
94	13904	49	1.8470704399189
94	14533	50	2.0061727101658
94	15162	51	-2.6829852547596
94	15836	52	-3.1131459675241
94	16514	53	-2.6692417461046
94	17192	54	-0.24108128086408
94	17976	55	2.2374072134611
94	18760	56	2.0002533001499
94	19536	57	1.9608823507791
94	20312	58	1.8826914919401
94	21174	59	1.2477586101253
94	22036	60	0.01809856277192
94	22902	61	-0.020433376857545
94	23768	62	0.028595468848945
94	24634	63	-0.018006838795264
94	25508	64	-0.017074072854593
94	26395	65	0.035291971752885
94	27282	66	-0.017922292689327
94	28177	67	-0.079494410001207
94	29068	68	0.0064829612802715
94	29959	69	-0.019278086330742
94	30850	70	0.097353967814707
94	31745	71	-0.045481971825939
94	32644	72	-0.037313434146345
94	33543	73	0.0071348123345523
94	34442	74	-0.0079071217309679
94	35345	75	0.037916331640444
94	36252	76	-0.012077608967665
94	37151	77	0.040991038687062
94	38054	78	-0.050960614832585
94	38953	79	0.0047289446718057
94	39856	80	0.031291350831744
94	40763	81	-0.057904136627913
94	41674	82	-0.0028167446446599
94	42585	83	0.064462204519659
94	43496	84	-0.050980009648482
94	44407	85	0.0029453794588328
94	45318	86	0.067411647909321
94	46229	87	0.0054210900398903
94	47132	88	0.024473453881219
94	48084	89	-0.049793904740364
94	49040	90	-0.75617993874678
94	49996	91	-3.2878909037495
94	50948	92	-2.9108009657161
94	51904	93	-2.6319515369693
94	52873	94	-1.8675342539243
94	53842	95	-1.2173820108006
94	54807	96	-0.60962939054895
94	55772	97	2.245597862257
87	8132	39	4.1118844234019
87	8522	40	5.7927328064021
87	9079	41	7.7235687498569
87	9636	42	9.5782603393246
87	10206	43	9.3225688935527
87	10785	44	6.4329444522482
87	11401	45	3.911407485986
87	12017	46	5.4844303912504
87	12646	47	7.4075606719821
87	13275	48	9.2508007018056
87	13904	49	11.097871141724
87	14533	50	13.10404385189
87	15162	51	10.421058597131
87	15836	52	7.3079126296066
87	16514	53	4.6386708835019
87	17192	54	4.3975896026379
87	17976	55	6.634996816099
87	18760	56	8.6352501162489
87	19536	57	10.596132467028
87	20312	58	12.478823958968
87	21174	59	13.726582569093
87	22036	60	13.744681131865
87	22902	61	13.724247755008
87	23768	62	13.752843223857
87	24634	63	13.734836385061
87	25508	64	13.717762312207
87	26395	65	13.75305428396
87	27282	66	13.73513199127
87	28177	67	13.655637581269
87	29068	68	13.662120542549
87	29959	69	13.642842456219
87	30850	70	13.740196424033
87	31745	71	13.694714452207
87	32644	72	13.657401018061
87	33543	73	13.664535830396
87	34442	74	13.656628708665
87	35345	75	13.694545040305
87	36252	76	13.682467431338
87	37151	77	13.723458470025
87	38054	78	13.672497855192
87	38953	79	13.677226799864
87	39856	80	13.708518150696
87	40763	81	13.650614014068
87	41674	82	13.647797269423
87	42585	83	13.712259473943
87	43496	84	13.661279464294
87	44407	85	13.664224843753
87	45318	86	13.731636491662
87	46229	87	13.737057581702
87	47132	88	13.761531035583
87	48084	89	13.711737130843
87	49040	90	12.955557192096
87	49996	91	9.6676662883467
87	50948	92	6.7568653226306
87	51904	93	4.1249137856613
87	52873	94	2.257379531737
87	53842	95	1.0399975209365
87	54807	96	0.43036813038751
87	55772	97	2.6759659926445
83	7742	38	4787.6035335483
83	8132	39	4787.6035335483
83	8522	40	4787.863577211
83	9079	41	4788.2711797879
83	9636	42	4788.8319663541
83	10206	43	4789.5508331762
83	10785	44	4790.3705630695
83	11401	45	4790.9982696069
83	12017	46	4791.4156916378
83	12646	47	4792.9805878561
83	13275	48	4798.952558323
83	13904	49	4807.3834048313
83	14533	50	4817.6591490678
83	15162	51	4829.768241253
83	15836	52	4841.579896671
83	16514	53	4850.2071066272
83	17192	54	4855.9751772216
83	17976	55	4859.88893659
83	18760	56	4865.4911337707
83	19536	57	4868.5331484999
83	20312	58	4868.3070190002
83	21174	59	4868.036414935
83	22036	60	4867.7249724552
83	22902	61	4867.4069684439
83	23768	62	4867.0889370081
83	24634	63	4866.7716407389
83	25508	64	4866.5023930659
83	26395	65	4864.8961385507
83	27282	66	4863.2882001744
83	28177	67	4861.6716428313
83	29068	68	4859.8080597678
83	29959	69	4857.8116401497
83	30850	70	4855.8124288921
83	31745	71	4853.8126145628
83	32644	72	4851.674496198
83	33543	73	4849.0875134827
83	34442	74	4846.4917334752
83	35345	75	4843.8836134296
83	36252	76	4841.2715678865
83	37151	77	4846.1883095611
83	38054	78	4855.5173951531
83	38953	79	4864.4342734461
83	39856	80	4872.5926703713
83	40763	81	4879.9814801671
83	41674	82	4887.3565737608
83	42585	83	4895.3050244665
83	43496	84	4903.4017746086
83	44407	85	4911.4915749833
83	45318	86	4919.5063674833
83	46229	87	4927.5283120292
83	47132	88	4935.547961474
83	48084	89	4943.5685893401
83	49040	90	4951.6012817005
83	49996	91	4959.5621223317
83	50948	92	4966.1015656447
83	51904	93	4970.817736342
83	52873	94	4973.9088503608
83	53842	95	4975.8106431938
83	54807	96	4976.8102102803
83	55772	97	4977.2380406015
82	7742	38	5104.0127250806
82	8132	39	5104.0127250806
82	8522	40	5100.8445874993
82	9079	41	5095.8787251196
82	9636	42	5089.0466070944
82	10206	43	5080.2885817263
82	10785	44	5070.3017316179
82	11401	45	5062.654320986
82	12017	46	5057.6917538291
82	12646	47	5053.6989624647
82	13275	48	5051.945498337
82	13904	49	5052.5717072726
82	14533	50	5053.3349476963
82	15162	51	5054.2343617374
82	15836	52	5055.1116833871
82	16514	53	5055.7524773997
82	17192	54	5056.1809061873
82	17976	55	5056.4716042905
82	18760	56	5057.4386704747
82	19536	57	5064.0159519269
82	20312	58	5073.7574671971
82	21174	59	5085.4149185126
82	22036	60	5098.8316628047
82	22902	61	5112.5310737004
82	23768	62	5126.231666032
82	24634	63	5139.9005878501
82	25508	64	5153.5929268789
82	26395	65	5167.1876506448
82	27282	66	5180.7966259669
82	28177	67	5194.4170889053
82	29068	68	5207.9727201133
82	29959	69	5221.512384466
82	30850	70	5235.0709816432
82	31745	71	5248.6336688359
82	32644	72	5262.1598668606
82	33543	73	5275.6090124751
82	34442	74	5289.060651225
82	35345	75	5302.4940681321
82	36252	76	5315.9477037578
82	37151	77	5329.2212862532
82	38054	78	5339.1742359238
82	38953	79	5349.5713337938
82	39856	80	5360.5092498187
82	40763	81	5372.0314773804
82	41674	82	5383.5323156783
82	42585	83	5394.6456781791
82	43496	84	5405.6693189267
82	44407	85	5416.6971308868
82	45318	86	5427.7794987527
82	46229	87	5438.8717560328
82	47132	88	5449.9608397867
82	48084	89	5461.0512764422
82	49040	90	5472.1583951468
82	49996	91	5483.1661616482
82	50948	92	5492.2085063417
82	51904	93	5498.7297404955
82	52873	94	5503.003945058
82	53842	95	5505.4008899196
82	54807	96	5506.5505421543
82	55772	97	5507.0426112623

